<?xml version="1.0" encoding="UTF-8"?>

<!-- generated on 2023-07-14 11:19:31 by Eclipse SUMO netconvert Version 1.17.0
<configuration xmlns:xsi="http://www.w3.org/2001/XMLSchema-instance" xsi:noNamespaceSchemaLocation="http://sumo.dlr.de/xsd/netconvertConfiguration.xsd">

    <input>
        <sumo-net-file value="osm.net.xml.gz"/>
    </input>

    <output>
        <output-file value="osm.net.xml"/>
        <output.street-names value="true"/>
    </output>

    <processing>
        <geometry.min-radius.fix.railways value="false"/>
        <geometry.max-grade.fix value="false"/>
        <offset.disable-normalization value="true"/>
        <lefthand value="1"/>
    </processing>

    <junctions>
        <no-turnarounds value="true"/>
        <junctions.corner-detail value="5"/>
        <junctions.limit-turn-speed value="5.50"/>
        <rectangular-lane-cut value="0"/>
    </junctions>

    <pedestrian>
        <walkingareas value="0"/>
    </pedestrian>

</configuration>
-->

<net version="1.16" junctionCornerDetail="5" lefthand="true" limitTurnSpeed="5.50" xmlns:xsi="http://www.w3.org/2001/XMLSchema-instance" xsi:noNamespaceSchemaLocation="http://sumo.dlr.de/xsd/net_file.xsd">

    <location netOffset="-364688.39,-160395.92" convBoundary="0.00,0.00,606.32,117.89" origBoundary="103.783693,1.450821,103.789142,1.451889" projParameter="+proj=utm +zone=48 +ellps=WGS84 +datum=WGS84 +units=m +no_defs"/>

    <type id="highway.bridleway" priority="1" numLanes="1" speed="2.78" allow="pedestrian" oneway="1" width="2.00"/>
    <type id="highway.bus_guideway" priority="1" numLanes="1" speed="27.78" allow="bus" oneway="1"/>
    <type id="highway.cycleway" priority="1" numLanes="1" speed="5.56" allow="bicycle" oneway="0" width="1.00"/>
    <type id="highway.footway" priority="1" numLanes="1" speed="2.78" allow="pedestrian" oneway="1" width="2.00"/>
    <type id="highway.ford" priority="1" numLanes="1" speed="2.78" allow="army" oneway="0"/>
    <type id="highway.living_street" priority="2" numLanes="1" speed="2.78" disallow="tram rail_urban rail rail_electric rail_fast ship" oneway="0"/>
    <type id="highway.motorway" priority="14" numLanes="2" speed="39.44" allow="private emergency authority army vip passenger hov taxi bus coach delivery truck trailer motorcycle evehicle custom1 custom2" oneway="1"/>
    <type id="highway.motorway_link" priority="9" numLanes="1" speed="22.22" allow="private emergency authority army vip passenger hov taxi bus coach delivery truck trailer motorcycle evehicle custom1 custom2" oneway="1"/>
    <type id="highway.path" priority="1" numLanes="1" speed="5.56" allow="pedestrian bicycle" oneway="0" width="2.00"/>
    <type id="highway.pedestrian" priority="1" numLanes="1" speed="2.78" allow="pedestrian" oneway="1" width="2.00"/>
    <type id="highway.primary" priority="12" numLanes="2" speed="27.78" disallow="tram rail_urban rail rail_electric rail_fast ship" oneway="0"/>
    <type id="highway.primary_link" priority="7" numLanes="1" speed="22.22" disallow="tram rail_urban rail rail_electric rail_fast ship" oneway="0"/>
    <type id="highway.raceway" priority="15" numLanes="2" speed="83.33" allow="vip" oneway="0"/>
    <type id="highway.residential" priority="3" numLanes="1" speed="13.89" disallow="tram rail_urban rail rail_electric rail_fast ship" oneway="0"/>
    <type id="highway.secondary" priority="11" numLanes="1" speed="27.78" disallow="tram rail_urban rail rail_electric rail_fast ship" oneway="0"/>
    <type id="highway.secondary_link" priority="6" numLanes="1" speed="22.22" disallow="tram rail_urban rail rail_electric rail_fast ship" oneway="0"/>
    <type id="highway.service" priority="1" numLanes="1" speed="5.56" allow="pedestrian delivery bicycle" oneway="0"/>
    <type id="highway.stairs" priority="1" numLanes="1" speed="1.39" allow="pedestrian" oneway="1" width="2.00"/>
    <type id="highway.step" priority="1" numLanes="1" speed="1.39" allow="pedestrian" oneway="1" width="2.00"/>
    <type id="highway.steps" priority="1" numLanes="1" speed="1.39" allow="pedestrian" oneway="1" width="2.00"/>
    <type id="highway.tertiary" priority="10" numLanes="1" speed="22.22" disallow="tram rail_urban rail rail_electric rail_fast ship" oneway="0"/>
    <type id="highway.tertiary_link" priority="5" numLanes="1" speed="22.22" disallow="tram rail_urban rail rail_electric rail_fast ship" oneway="0"/>
    <type id="highway.track" priority="1" numLanes="1" speed="5.56" allow="pedestrian motorcycle moped bicycle" oneway="0"/>
    <type id="highway.trunk" priority="13" numLanes="2" speed="27.78" disallow="pedestrian bicycle tram rail_urban rail rail_electric rail_fast ship" oneway="0"/>
    <type id="highway.trunk_link" priority="8" numLanes="1" speed="22.22" disallow="pedestrian bicycle tram rail_urban rail rail_electric rail_fast ship" oneway="0"/>
    <type id="highway.unclassified" priority="4" numLanes="1" speed="13.89" disallow="tram rail_urban rail rail_electric rail_fast ship" oneway="0"/>
    <type id="highway.unsurfaced" priority="1" numLanes="1" speed="8.33" disallow="tram rail_urban rail rail_electric rail_fast ship" oneway="0"/>
    <type id="railway.highspeed" priority="21" numLanes="1" speed="69.44" allow="rail_fast" oneway="1"/>
    <type id="railway.light_rail" priority="19" numLanes="1" speed="27.78" allow="rail_urban" oneway="1"/>
    <type id="railway.preserved" priority="16" numLanes="1" speed="27.78" allow="rail" oneway="1"/>
    <type id="railway.rail" priority="20" numLanes="1" speed="44.44" allow="rail" oneway="1"/>
    <type id="railway.subway" priority="18" numLanes="1" speed="27.78" allow="rail_urban" oneway="1"/>
    <type id="railway.tram" priority="17" numLanes="1" speed="13.89" allow="tram" oneway="1"/>

    <edge id=":1483337629_0" function="internal">
        <lane id=":1483337629_0_0" index="0" disallow="tram rail_urban rail rail_electric rail_fast ship" speed="19.44" length="10.53" shape="446.32,54.00 435.97,51.50"/>
        <lane id=":1483337629_0_1" index="1" disallow="tram rail_urban rail rail_electric rail_fast ship" speed="19.44" length="10.53" shape="445.58,57.12 435.48,54.66"/>
    </edge>
    <edge id=":1483337629_2" function="internal">
        <lane id=":1483337629_2_0" index="0" disallow="pedestrian tram rail_urban rail rail_electric rail_fast ship" speed="7.65" length="10.85" shape="443.48,60.67 442.88,58.49 441.34,56.76 438.88,55.48 435.48,54.66"/>
    </edge>
    <edge id=":1483337633_0" function="internal">
        <lane id=":1483337633_0_0" index="0" disallow="tram rail_urban rail rail_electric rail_fast ship" speed="19.44" length="6.84" shape="463.17,56.24 461.19,56.03 459.79,56.31 458.38,56.59 456.39,56.40"/>
        <lane id=":1483337633_0_1" index="1" disallow="tram rail_urban rail rail_electric rail_fast ship" speed="19.44" length="6.84" shape="462.40,59.35 460.42,59.14 459.03,59.42 457.63,59.70 455.65,59.51"/>
    </edge>
    <edge id=":1483337633_2" function="internal">
        <lane id=":1483337633_2_0" index="0" disallow="pedestrian tram rail_urban rail rail_electric rail_fast ship" speed="10.12" length="6.55" shape="461.62,62.45 459.76,62.15 458.45,62.34 457.17,62.89 455.39,63.69"/>
    </edge>
    <edge id=":1483337645_0" function="internal">
        <lane id=":1483337645_0_0" index="0" disallow="tram rail_urban rail rail_electric rail_fast ship" speed="19.44" length="12.42" shape="418.43,79.10 422.05,79.67 424.60,79.65 427.14,79.62 430.77,80.16"/>
        <lane id=":1483337645_0_1" index="1" disallow="tram rail_urban rail rail_electric rail_fast ship" speed="19.44" length="12.42" shape="419.16,75.99 422.77,76.55 425.31,76.53 427.86,76.50 431.48,77.04"/>
    </edge>
    <edge id=":1483337645_2" function="internal">
        <lane id=":1483337645_2_0" index="0" disallow="pedestrian tram rail_urban rail rail_electric rail_fast ship" speed="16.66" length="12.10" shape="419.89,72.87 423.54,73.54 426.23,73.69 428.76,73.61 431.92,73.60"/>
    </edge>
    <edge id=":1483337651_0" function="internal">
        <lane id=":1483337651_0_0" index="0" disallow="tram rail_urban rail rail_electric rail_fast ship" speed="19.44" length="15.69" shape="445.70,83.55 461.00,87.02"/>
        <lane id=":1483337651_0_1" index="1" disallow="tram rail_urban rail rail_electric rail_fast ship" speed="19.44" length="15.69" shape="446.41,80.43 461.70,83.90"/>
    </edge>
    <edge id=":1483337651_2" function="internal">
        <lane id=":1483337651_2_0" index="0" disallow="pedestrian tram rail_urban rail rail_electric rail_fast ship" speed="10.55" length="15.30" shape="450.68,74.37 452.24,77.80 454.60,80.53 457.75,82.57 461.70,83.90"/>
    </edge>
    <edge id=":6038612443_0" function="internal">
        <lane id=":6038612443_0_0" index="0" disallow="tram rail_urban rail rail_electric rail_fast ship" speed="19.44" length="8.21" shape="367.95,65.60 370.22,66.41 371.66,67.31 373.09,68.22 375.37,69.01"/>
        <lane id=":6038612443_0_1" index="1" disallow="tram rail_urban rail rail_electric rail_fast ship" speed="19.44" length="8.21" shape="368.69,62.49 370.97,63.29 372.40,64.20 373.83,65.10 376.10,65.89"/>
        <lane id=":6038612443_0_2" index="2" disallow="tram rail_urban rail rail_electric rail_fast ship" speed="19.44" length="8.21" shape="368.69,62.49 371.08,62.81 372.76,62.64 374.45,62.47 376.83,62.78"/>
    </edge>
    <edge id=":6139000058_0" function="internal">
        <lane id=":6139000058_0_0" index="0" disallow="tram rail_urban rail rail_electric rail_fast ship" speed="19.44" length="8.21" shape="511.26,69.91 508.99,69.10 507.57,68.18 506.15,67.26 503.89,66.43"/>
        <lane id=":6139000058_0_1" index="1" disallow="tram rail_urban rail rail_electric rail_fast ship" speed="19.44" length="8.21" shape="510.49,73.02 508.22,72.20 506.80,71.28 505.38,70.36 503.11,69.54"/>
        <lane id=":6139000058_0_2" index="2" disallow="tram rail_urban rail rail_electric rail_fast ship" speed="19.44" length="8.21" shape="510.49,73.02 508.10,72.69 506.41,72.84 504.72,72.98 502.33,72.64"/>
    </edge>

    <edge id="134999142" from="1483337645" to="1483337629" priority="7" type="highway.primary_link" spreadType="center" shape="405.14,72.70 437.33,73.78 443.87,67.68 443.45,60.18 435.15,52.99">
        <lane id="134999142_0" index="0" disallow="pedestrian tram rail_urban rail rail_electric rail_fast ship" speed="13.89" length="21.37" shape="431.92,73.60 437.33,73.78 443.87,67.68 443.48,60.67">
            <param key="origId" value="134999142"/>
        </lane>
    </edge>
    <edge id="134999144" from="1483337633" to="1483337651" priority="7" type="highway.primary_link" spreadType="center" shape="472.47,61.87 459.59,61.99 452.03,65.05 449.99,72.15 452.24,79.44 461.25,85.44">
        <lane id="134999144_0" index="0" disallow="pedestrian tram rail_urban rail rail_electric rail_fast ship" speed="13.89" length="13.34" shape="455.39,63.69 452.03,65.05 449.99,72.15 450.68,74.37">
            <param key="origId" value="134999144"/>
        </lane>
    </edge>
    <edge id="537349465" from="1483337651" to="5214670126" name="Admiralty Road West" priority="12" type="highway.primary" spreadType="center" shape="461.25,85.44 494.99,93.09 606.32,117.89">
        <lane id="537349465_0" index="0" disallow="tram rail_urban rail rail_electric rail_fast ship" speed="19.44" length="148.55" shape="461.00,87.02 494.64,94.65 605.97,119.45">
            <param key="origId" value="537349465"/>
        </lane>
        <lane id="537349465_1" index="1" disallow="tram rail_urban rail rail_electric rail_fast ship" speed="19.44" length="148.55" shape="461.70,83.90 495.34,91.53 606.67,116.33">
            <param key="origId" value="537349465"/>
        </lane>
    </edge>
    <edge id="537349468" from="1483337633" to="1483337629" name="Admiralty Road West" priority="12" type="highway.primary" spreadType="center">
        <lane id="537349468_0" index="0" disallow="tram rail_urban rail rail_electric rail_fast ship" speed="19.44" length="10.35" shape="456.39,56.40 446.32,54.00">
            <param key="origId" value="537349468"/>
        </lane>
        <lane id="537349468_1" index="1" disallow="tram rail_urban rail rail_electric rail_fast ship" speed="19.44" length="10.35" shape="455.65,59.51 445.58,57.12">
            <param key="origId" value="537349468"/>
        </lane>
    </edge>
    <edge id="537349469" from="1483337645" to="1483337651" name="Admiralty Road West" priority="12" type="highway.primary" spreadType="center">
        <lane id="537349469_0" index="0" disallow="tram rail_urban rail rail_electric rail_fast ship" speed="19.44" length="15.31" shape="430.77,80.16 445.70,83.55">
            <param key="origId" value="537349469"/>
        </lane>
        <lane id="537349469_1" index="1" disallow="tram rail_urban rail rail_electric rail_fast ship" speed="19.44" length="15.31" shape="431.48,77.04 446.41,80.43">
            <param key="origId" value="537349469"/>
        </lane>
    </edge>
    <edge id="537349470" from="1483337629" to="6139222909" name="Admiralty Road West" priority="12" type="highway.primary" spreadType="center" shape="435.15,52.99 371.82,43.26 311.66,32.40 283.35,25.98 256.56,19.91 240.83,15.92 223.60,12.52 177.20,4.50 145.81,1.47 115.93,0.00 65.47,0.81 30.28,3.11 0.00,5.56">
        <lane id="537349470_0" index="0" disallow="tram rail_urban rail rail_electric rail_fast ship" speed="19.44" length="440.73" shape="435.97,51.50 372.08,41.68 311.98,30.83 283.70,24.42 256.93,18.35 241.18,14.36 223.89,10.95 177.41,2.91 145.93,-0.13 115.96,-1.60 65.40,-0.79 30.16,1.51 -0.13,3.97">
            <param key="origId" value="537349470"/>
        </lane>
        <lane id="537349470_1" index="1" disallow="tram rail_urban rail rail_electric rail_fast ship" speed="19.44" length="440.73" shape="435.48,54.66 371.56,44.84 311.34,33.97 283.00,27.54 256.19,21.47 240.48,17.48 223.31,14.09 176.99,6.09 145.69,3.07 115.90,1.60 65.54,2.41 30.40,4.71 0.13,7.15">
            <param key="origId" value="537349470"/>
        </lane>
    </edge>
    <edge id="655198926" from="6139000058" to="1483337633" name="Admiralty Road West" priority="12" type="highway.primary" spreadType="center">
        <lane id="655198926_0" index="0" disallow="tram rail_urban rail rail_electric rail_fast ship" speed="19.44" length="41.97" shape="503.89,66.43 463.17,56.24">
            <param key="origId" value="655198926"/>
        </lane>
        <lane id="655198926_1" index="1" disallow="tram rail_urban rail rail_electric rail_fast ship" speed="19.44" length="41.97" shape="503.11,69.54 462.40,59.35">
            <param key="origId" value="655198926"/>
        </lane>
        <lane id="655198926_2" index="2" disallow="tram rail_urban rail rail_electric rail_fast ship" speed="19.44" length="41.97" shape="502.33,72.64 461.62,62.45">
            <param key="origId" value="655198926"/>
        </lane>
    </edge>
    <edge id="655198928" from="244325684" to="6139000058" name="Admiralty Road West" priority="12" type="highway.primary" spreadType="center">
        <lane id="655198928_0" index="0" disallow="tram rail_urban rail rail_electric rail_fast ship" speed="19.44" length="35.01" shape="545.26,78.24 511.26,69.91">
            <param key="origId" value="655198928"/>
        </lane>
        <lane id="655198928_1" index="1" disallow="tram rail_urban rail rail_electric rail_fast ship" speed="19.44" length="35.01" shape="544.50,81.34 510.49,73.02">
            <param key="origId" value="655198928"/>
        </lane>
    </edge>
    <edge id="655218633" from="244325496" to="6038612443" name="Admiralty Road West" priority="12" type="highway.primary" spreadType="center">
        <lane id="655218633_0" index="0" disallow="tram rail_urban rail rail_electric rail_fast ship" speed="19.44" length="21.62" shape="346.93,60.56 367.95,65.60">
            <param key="origId" value="655218633"/>
        </lane>
        <lane id="655218633_1" index="1" disallow="tram rail_urban rail rail_electric rail_fast ship" speed="19.44" length="21.62" shape="347.67,57.44 368.69,62.49">
            <param key="origId" value="655218633"/>
        </lane>
    </edge>
    <edge id="655218634" from="6038612443" to="1483337645" name="Admiralty Road West" priority="12" type="highway.primary" spreadType="center">
        <lane id="655218634_0" index="0" disallow="tram rail_urban rail rail_electric rail_fast ship" speed="19.44" length="44.22" shape="375.37,69.01 418.43,79.10">
            <param key="origId" value="655218634"/>
        </lane>
        <lane id="655218634_1" index="1" disallow="tram rail_urban rail rail_electric rail_fast ship" speed="19.44" length="44.22" shape="376.10,65.89 419.16,75.99">
            <param key="origId" value="655218634"/>
        </lane>
        <lane id="655218634_2" index="2" disallow="tram rail_urban rail rail_electric rail_fast ship" speed="19.44" length="44.22" shape="376.83,62.78 419.89,72.87">
            <param key="origId" value="655218634"/>
        </lane>
    </edge>

    <junction id="1483337629" type="priority" x="435.15" y="52.99" incLanes="537349468_0 537349468_1 134999142_0" intLanes=":1483337629_0_0 :1483337629_0_1 :1483337629_2_0" shape="446.69,52.45 445.21,58.67 444.89,59.31 441.96,62.14 441.09,59.30 440.14,58.21 438.85,57.34 437.22,56.68 435.24,56.24 436.21,49.92">
        <request index="0" response="000" foes="100" cont="0"/>
        <request index="1" response="000" foes="100" cont="0"/>
        <request index="2" response="011" foes="011" cont="0"/>
    </junction>
    <junction id="1483337633" type="priority" x="472.47" y="61.87" incLanes="655198926_0 655198926_1 655198926_2" intLanes=":1483337633_0_0 :1483337633_0_1 :1483337633_2_0" shape="463.56,54.69 461.23,64.01 459.05,63.80 458.28,64.01 457.52,64.38 456.62,64.86 455.43,65.40 455.35,61.98 455.96,61.63 456.03,61.47 455.94,61.33 455.69,61.19 455.28,61.07 456.76,54.84 459.26,54.97 460.17,54.75 461.07,54.54 462.14,54.47">
        <request index="0" response="000" foes="000" cont="0"/>
        <request index="1" response="000" foes="000" cont="0"/>
        <request index="2" response="000" foes="000" cont="0"/>
    </junction>
    <junction id="1483337645" type="priority" x="405.14" y="72.70" incLanes="655218634_0 655218634_1 655218634_2" intLanes=":1483337645_0_0 :1483337645_0_1 :1483337645_2_0" shape="431.98,72.00 431.87,75.20 431.83,75.48 430.42,81.72 427.82,81.26 425.87,81.15 424.24,81.21 422.60,81.26 420.65,81.13 418.06,80.66 420.25,71.31 422.70,71.82 424.53,72.04 426.06,72.08 427.60,72.03 429.47,71.97">
        <request index="0" response="000" foes="000" cont="0"/>
        <request index="1" response="000" foes="000" cont="0"/>
        <request index="2" response="000" foes="000" cont="0"/>
    </junction>
    <junction id="1483337651" type="priority" x="461.25" y="85.44" incLanes="537349469_0 537349469_1 134999144_0" intLanes=":1483337651_0_0 :1483337651_0_1 :1483337651_2_0" shape="462.06,82.34 460.64,88.58 445.34,85.11 446.76,78.87 448.80,78.94 449.39,78.58 449.70,77.96 449.74,77.08 449.48,75.93 451.87,72.81 452.82,75.23 454.07,77.32 455.61,79.08 457.46,80.50 459.61,81.59">
        <request index="0" response="000" foes="100" cont="0"/>
        <request index="1" response="000" foes="100" cont="0"/>
        <request index="2" response="011" foes="011" cont="0"/>
    </junction>
    <junction id="244325496" type="dead_end" x="347.30" y="59.00" incLanes="" intLanes="" shape="348.05,55.89 346.55,62.11"/>
    <junction id="244325684" type="dead_end" x="544.88" y="79.79" incLanes="" intLanes="" shape="544.12,82.90 545.64,76.68"/>
    <junction id="5214670126" type="dead_end" x="606.32" y="117.89" incLanes="537349465_0 537349465_1" intLanes="" shape="605.62,121.01 607.02,114.77"/>
    <junction id="6038612443" type="priority" x="372.21" y="64.98" incLanes="655218633_0 655218633_1" intLanes=":6038612443_0_0 :6038612443_0_1 :6038612443_0_2" shape="377.20,61.22 375.01,70.57 372.20,69.48 370.38,68.26 369.23,67.68 367.57,67.16 369.07,60.93 372.05,61.22 374.21,60.94 375.50,60.94">
        <request index="0" response="000" foes="000" cont="0"/>
        <request index="1" response="000" foes="000" cont="0"/>
        <request index="2" response="000" foes="000" cont="0"/>
    </junction>
    <junction id="6139000058" type="priority" x="506.99" y="70.51" incLanes="655198928_0 655198928_1" intLanes=":6139000058_0_0 :6139000058_0_1 :6139000058_0_2" shape="511.64,68.35 510.11,74.57 507.11,74.26 504.94,74.52 503.65,74.50 501.94,74.20 504.28,64.88 507.06,66.01 508.85,67.24 509.99,67.83">
        <request index="0" response="000" foes="000" cont="0"/>
        <request index="1" response="000" foes="000" cont="0"/>
        <request index="2" response="000" foes="000" cont="0"/>
    </junction>
    <junction id="6139222909" type="dead_end" x="0.00" y="5.56" incLanes="537349470_0 537349470_1" intLanes="" shape="-0.26,2.37 0.26,8.75"/>

    <connection from="134999142" to="537349470" fromLane="0" toLane="1" via=":1483337629_2_0" dir="s" state="m"/>
    <connection from="134999144" to="537349465" fromLane="0" toLane="1" via=":1483337651_2_0" dir="s" state="m"/>
    <connection from="537349468" to="537349470" fromLane="0" toLane="0" via=":1483337629_0_0" dir="s" state="M"/>
    <connection from="537349468" to="537349470" fromLane="1" toLane="1" via=":1483337629_0_1" dir="s" state="M"/>
    <connection from="537349469" to="537349465" fromLane="0" toLane="0" via=":1483337651_0_0" dir="s" state="M"/>
    <connection from="537349469" to="537349465" fromLane="1" toLane="1" via=":1483337651_0_1" dir="s" state="M"/>
    <connection from="655198926" to="537349468" fromLane="0" toLane="0" via=":1483337633_0_0" dir="s" state="M"/>
    <connection from="655198926" to="537349468" fromLane="1" toLane="1" via=":1483337633_0_1" dir="s" state="M"/>
    <connection from="655198926" to="134999144" fromLane="2" toLane="0" via=":1483337633_2_0" dir="R" state="M"/>
    <connection from="655198928" to="655198926" fromLane="0" toLane="0" via=":6139000058_0_0" dir="s" state="M"/>
    <connection from="655198928" to="655198926" fromLane="1" toLane="1" via=":6139000058_0_1" dir="s" state="M"/>
    <connection from="655198928" to="655198926" fromLane="1" toLane="2" via=":6139000058_0_2" dir="s" state="M"/>
    <connection from="655218633" to="655218634" fromLane="0" toLane="0" via=":6038612443_0_0" dir="s" state="M"/>
    <connection from="655218633" to="655218634" fromLane="1" toLane="1" via=":6038612443_0_1" dir="s" state="M"/>
    <connection from="655218633" to="655218634" fromLane="1" toLane="2" via=":6038612443_0_2" dir="s" state="M"/>
    <connection from="655218634" to="537349469" fromLane="0" toLane="0" via=":1483337645_0_0" dir="s" state="M"/>
    <connection from="655218634" to="537349469" fromLane="1" toLane="1" via=":1483337645_0_1" dir="s" state="M"/>
    <connection from="655218634" to="134999142" fromLane="2" toLane="0" via=":1483337645_2_0" dir="R" state="M"/>

    <connection from=":1483337629_0" to="537349470" fromLane="0" toLane="0" dir="s" state="M"/>
    <connection from=":1483337629_0" to="537349470" fromLane="1" toLane="1" dir="s" state="M"/>
    <connection from=":1483337629_2" to="537349470" fromLane="0" toLane="1" dir="s" state="M"/>
    <connection from=":1483337633_0" to="537349468" fromLane="0" toLane="0" dir="s" state="M"/>
    <connection from=":1483337633_0" to="537349468" fromLane="1" toLane="1" dir="s" state="M"/>
    <connection from=":1483337633_2" to="134999144" fromLane="0" toLane="0" dir="R" state="M"/>
    <connection from=":1483337645_0" to="537349469" fromLane="0" toLane="0" dir="s" state="M"/>
    <connection from=":1483337645_0" to="537349469" fromLane="1" toLane="1" dir="s" state="M"/>
    <connection from=":1483337645_2" to="134999142" fromLane="0" toLane="0" dir="R" state="M"/>
    <connection from=":1483337651_0" to="537349465" fromLane="0" toLane="0" dir="s" state="M"/>
    <connection from=":1483337651_0" to="537349465" fromLane="1" toLane="1" dir="s" state="M"/>
    <connection from=":1483337651_2" to="537349465" fromLane="0" toLane="1" dir="s" state="M"/>
    <connection from=":6038612443_0" to="655218634" fromLane="0" toLane="0" dir="s" state="M"/>
    <connection from=":6038612443_0" to="655218634" fromLane="1" toLane="1" dir="s" state="M"/>
    <connection from=":6038612443_0" to="655218634" fromLane="2" toLane="2" dir="s" state="M"/>
    <connection from=":6139000058_0" to="655198926" fromLane="0" toLane="0" dir="s" state="M"/>
    <connection from=":6139000058_0" to="655198926" fromLane="1" toLane="1" dir="s" state="M"/>
    <connection from=":6139000058_0" to="655198926" fromLane="2" toLane="2" dir="s" state="M"/>

</net>
