<?xml version="1.0" encoding="UTF-8"?>

<!-- generated on 2023-07-17 16:29:59 by Eclipse SUMO netconvert Version 1.17.0
<configuration xmlns:xsi="http://www.w3.org/2001/XMLSchema-instance" xsi:noNamespaceSchemaLocation="http://sumo.dlr.de/xsd/netconvertConfiguration.xsd">

    <input>
        <sumo-net-file value="osm.net.xml.gz"/>
    </input>

    <output>
        <output-file value="osm.net.xml"/>
        <output.street-names value="true"/>
    </output>

    <processing>
        <geometry.min-radius.fix.railways value="false"/>
        <geometry.max-grade.fix value="false"/>
        <offset.disable-normalization value="true"/>
        <lefthand value="1"/>
    </processing>

    <junctions>
        <no-turnarounds value="true"/>
        <junctions.corner-detail value="5"/>
        <junctions.limit-turn-speed value="5.50"/>
        <rectangular-lane-cut value="0"/>
    </junctions>

    <pedestrian>
        <walkingareas value="0"/>
    </pedestrian>

</configuration>
-->

<net version="1.16" junctionCornerDetail="5" lefthand="true" limitTurnSpeed="5.50" xmlns:xsi="http://www.w3.org/2001/XMLSchema-instance" xsi:noNamespaceSchemaLocation="http://sumo.dlr.de/xsd/net_file.xsd">

    <location netOffset="-373212.41,-142154.33" convBoundary="0.00,0.00,620.02,1255.33" origBoundary="103.860380,1.285857,103.865951,1.297212" projParameter="+proj=utm +zone=48 +ellps=WGS84 +datum=WGS84 +units=m +no_defs"/>

    <type id="highway.bridleway" priority="1" numLanes="1" speed="2.78" allow="pedestrian" oneway="1" width="2.00"/>
    <type id="highway.bus_guideway" priority="1" numLanes="1" speed="27.78" allow="bus" oneway="1"/>
    <type id="highway.cycleway" priority="1" numLanes="1" speed="5.56" allow="bicycle" oneway="0" width="1.00"/>
    <type id="highway.footway" priority="1" numLanes="1" speed="2.78" allow="pedestrian" oneway="1" width="2.00"/>
    <type id="highway.ford" priority="1" numLanes="1" speed="2.78" allow="army" oneway="0"/>
    <type id="highway.living_street" priority="2" numLanes="1" speed="2.78" disallow="tram rail_urban rail rail_electric rail_fast ship" oneway="0"/>
    <type id="highway.motorway" priority="14" numLanes="2" speed="39.44" allow="private emergency authority army vip passenger hov taxi bus coach delivery truck trailer motorcycle evehicle custom1 custom2" oneway="1"/>
    <type id="highway.motorway_link" priority="9" numLanes="1" speed="22.22" allow="private emergency authority army vip passenger hov taxi bus coach delivery truck trailer motorcycle evehicle custom1 custom2" oneway="1"/>
    <type id="highway.path" priority="1" numLanes="1" speed="5.56" allow="pedestrian bicycle" oneway="0" width="2.00"/>
    <type id="highway.pedestrian" priority="1" numLanes="1" speed="2.78" allow="pedestrian" oneway="1" width="2.00"/>
    <type id="highway.primary" priority="12" numLanes="2" speed="27.78" disallow="tram rail_urban rail rail_electric rail_fast ship" oneway="0"/>
    <type id="highway.primary_link" priority="7" numLanes="1" speed="22.22" disallow="tram rail_urban rail rail_electric rail_fast ship" oneway="0"/>
    <type id="highway.raceway" priority="15" numLanes="2" speed="83.33" allow="vip" oneway="0"/>
    <type id="highway.residential" priority="3" numLanes="1" speed="13.89" disallow="tram rail_urban rail rail_electric rail_fast ship" oneway="0"/>
    <type id="highway.secondary" priority="11" numLanes="1" speed="27.78" disallow="tram rail_urban rail rail_electric rail_fast ship" oneway="0"/>
    <type id="highway.secondary_link" priority="6" numLanes="1" speed="22.22" disallow="tram rail_urban rail rail_electric rail_fast ship" oneway="0"/>
    <type id="highway.service" priority="1" numLanes="1" speed="5.56" allow="pedestrian delivery bicycle" oneway="0"/>
    <type id="highway.stairs" priority="1" numLanes="1" speed="1.39" allow="pedestrian" oneway="1" width="2.00"/>
    <type id="highway.step" priority="1" numLanes="1" speed="1.39" allow="pedestrian" oneway="1" width="2.00"/>
    <type id="highway.steps" priority="1" numLanes="1" speed="1.39" allow="pedestrian" oneway="1" width="2.00"/>
    <type id="highway.tertiary" priority="10" numLanes="1" speed="22.22" disallow="tram rail_urban rail rail_electric rail_fast ship" oneway="0"/>
    <type id="highway.tertiary_link" priority="5" numLanes="1" speed="22.22" disallow="tram rail_urban rail rail_electric rail_fast ship" oneway="0"/>
    <type id="highway.track" priority="1" numLanes="1" speed="5.56" allow="pedestrian motorcycle moped bicycle" oneway="0"/>
    <type id="highway.trunk" priority="13" numLanes="2" speed="27.78" disallow="pedestrian bicycle tram rail_urban rail rail_electric rail_fast ship" oneway="0"/>
    <type id="highway.trunk_link" priority="8" numLanes="1" speed="22.22" disallow="pedestrian bicycle tram rail_urban rail rail_electric rail_fast ship" oneway="0"/>
    <type id="highway.unclassified" priority="4" numLanes="1" speed="13.89" disallow="tram rail_urban rail rail_electric rail_fast ship" oneway="0"/>
    <type id="highway.unsurfaced" priority="1" numLanes="1" speed="8.33" disallow="tram rail_urban rail rail_electric rail_fast ship" oneway="0"/>
    <type id="railway.highspeed" priority="21" numLanes="1" speed="69.44" allow="rail_fast" oneway="1"/>
    <type id="railway.light_rail" priority="19" numLanes="1" speed="27.78" allow="rail_urban" oneway="1"/>
    <type id="railway.preserved" priority="16" numLanes="1" speed="27.78" allow="rail" oneway="1"/>
    <type id="railway.rail" priority="20" numLanes="1" speed="44.44" allow="rail" oneway="1"/>
    <type id="railway.subway" priority="18" numLanes="1" speed="27.78" allow="rail_urban" oneway="1"/>
    <type id="railway.tram" priority="17" numLanes="1" speed="13.89" allow="tram" oneway="1"/>

    <edge id=":1145428485_0" function="internal">
        <lane id=":1145428485_0_0" index="0" disallow="pedestrian bicycle tram rail_urban rail rail_electric rail_fast ship" speed="13.89" length="19.21" shape="81.70,885.77 80.40,891.28 79.00,894.92 77.53,898.54 75.98,904.00"/>
        <lane id=":1145428485_0_1" index="1" disallow="pedestrian bicycle tram rail_urban rail rail_electric rail_fast ship" speed="13.89" length="19.21" shape="84.85,886.33 83.54,891.88 82.14,895.55 80.66,899.20 79.11,904.70"/>
    </edge>
    <edge id=":1145428485_2" function="internal">
        <lane id=":1145428485_2_0" index="0" allow="private emergency authority army vip passenger hov taxi bus coach delivery truck trailer motorcycle evehicle custom1 custom2" speed="13.89" length="18.71" shape="88.11,887.32 86.21,892.64 84.82,896.26 83.60,899.93 82.23,905.40"/>
        <lane id=":1145428485_2_1" index="1" allow="private emergency authority army vip passenger hov taxi bus coach delivery truck trailer motorcycle evehicle custom1 custom2" speed="13.89" length="18.71" shape="91.04,888.64 89.20,893.78 87.85,897.27 86.68,900.82 85.35,906.10"/>
    </edge>
    <edge id=":1145428490_0" function="internal">
        <lane id=":1145428490_0_0" index="0" disallow="pedestrian bicycle tram rail_urban rail rail_electric rail_fast ship" speed="13.89" length="0.22" shape="99.36,779.16 99.35,779.27"/>
        <lane id=":1145428490_0_1" index="1" disallow="pedestrian bicycle tram rail_urban rail rail_electric rail_fast ship" speed="13.89" length="0.22" shape="102.55,779.40 102.52,779.73"/>
    </edge>
    <edge id=":1161612993_0" function="internal">
        <lane id=":1161612993_0_0" index="0" allow="vip" speed="3.61" length="0.18" shape="225.06,961.15 224.93,961.02"/>
    </edge>
    <edge id=":1161612993_3" function="internal">
        <lane id=":1161612993_3_0" index="0" allow="vip" speed="3.61" length="4.33" shape="224.93,961.02 224.10,960.14 223.27,959.89 222.58,960.40 222.01,961.67"/>
    </edge>
    <edge id=":1161612993_1" function="internal">
        <lane id=":1161612993_1_0" index="0" disallow="tram rail_urban rail rail_electric rail_fast ship" speed="16.67" length="4.19" shape="221.68,958.99 218.86,962.21"/>
        <lane id=":1161612993_1_1" index="1" disallow="tram rail_urban rail rail_electric rail_fast ship" speed="16.67" length="4.19" shape="224.87,958.74 222.01,961.67"/>
    </edge>
    <edge id=":1538307248_0" function="internal">
        <lane id=":1538307248_0_0" index="0" disallow="pedestrian bicycle tram rail_urban rail rail_electric rail_fast ship" speed="13.89" length="20.55" shape="185.03,1160.91 180.00,1164.16 176.58,1166.49 172.95,1168.37 167.34,1170.28"/>
        <lane id=":1538307248_0_1" index="1" disallow="pedestrian bicycle tram rail_urban rail rail_electric rail_fast ship" speed="13.89" length="20.55" shape="186.68,1163.66 181.53,1166.95 177.84,1169.40 173.96,1171.39 168.23,1173.35"/>
    </edge>
    <edge id=":1538307248_2" function="internal">
        <lane id=":1538307248_2_0" index="0" disallow="pedestrian bicycle tram rail_urban rail rail_electric rail_fast ship" speed="13.89" length="21.16" shape="188.69,1167.99 184.76,1168.76 180.21,1169.92 174.78,1171.45 168.23,1173.35"/>
    </edge>
    <edge id=":1538307446_0" function="internal">
        <lane id=":1538307446_0_0" index="0" disallow="pedestrian bicycle tram rail_urban rail rail_electric rail_fast ship" speed="12.70" length="6.02" shape="166.24,1186.56 167.96,1186.23 169.18,1186.26 170.40,1186.56 172.14,1187.01"/>
    </edge>
    <edge id=":1538307446_1" function="internal">
        <lane id=":1538307446_1_0" index="0" disallow="pedestrian bicycle tram rail_urban rail rail_electric rail_fast ship" speed="13.89" length="6.63" shape="165.44,1183.46 167.37,1183.20 168.74,1183.35 170.10,1183.48 172.01,1183.16"/>
    </edge>
    <edge id=":1538307450_0" function="internal">
        <lane id=":1538307450_0_0" index="0" disallow="tram rail_urban rail rail_electric rail_fast ship" speed="16.67" length="9.31" shape="231.23,1098.99 230.97,1101.44 230.66,1103.10 230.13,1104.71 229.20,1106.98"/>
        <lane id=":1538307450_0_1" index="1" disallow="tram rail_urban rail rail_electric rail_fast ship" speed="16.67" length="9.31" shape="231.23,1098.99 231.44,1101.78 232.20,1103.73 232.70,1105.62 232.15,1108.22"/>
        <lane id=":1538307450_0_2" index="2" disallow="tram rail_urban rail rail_electric rail_fast ship" speed="16.67" length="9.31" shape="234.39,1099.58 234.57,1102.56 235.28,1104.65 235.73,1106.68 235.10,1109.45"/>
    </edge>
    <edge id=":1783639818_0" function="internal">
        <lane id=":1783639818_0_0" index="0" disallow="pedestrian bicycle tram rail_urban rail rail_electric rail_fast ship" speed="15.28" length="19.89" shape="220.83,1126.99 218.14,1132.10 215.43,1135.06 212.20,1137.71 207.98,1141.86"/>
        <lane id=":1783639818_0_1" index="1" disallow="pedestrian bicycle tram rail_urban rail rail_electric rail_fast ship" speed="15.28" length="21.26" shape="223.78,1128.22 220.88,1133.76 217.94,1137.05 214.52,1139.93 210.16,1144.22"/>
    </edge>
    <edge id=":1783639818_2" function="internal">
        <lane id=":1783639818_2_0" index="0" disallow="tram rail_urban rail rail_electric rail_fast ship" speed="16.67" length="21.13" shape="223.78,1128.22 221.08,1133.93 218.77,1137.69 216.45,1141.35 213.71,1146.71"/>
        <lane id=":1783639818_2_1" index="1" disallow="tram rail_urban rail rail_electric rail_fast ship" speed="16.67" length="21.13" shape="226.74,1129.46 224.01,1135.19 221.70,1138.98 219.37,1142.66 216.63,1148.03"/>
    </edge>
    <edge id=":1783639826_0" function="internal">
        <lane id=":1783639826_0_0" index="0" disallow="pedestrian bicycle tram rail_urban rail rail_electric rail_fast ship" speed="11.60" length="14.43" shape="107.15,1162.02 104.65,1159.32 102.83,1157.33 101.82,1155.08 101.71,1151.63"/>
        <lane id=":1783639826_0_1" index="1" disallow="pedestrian bicycle tram rail_urban rail rail_electric rail_fast ship" speed="12.54" length="14.43" shape="104.46,1163.80 101.59,1160.58 99.61,1158.15 98.57,1155.44 98.53,1151.35"/>
        <lane id=":1783639826_0_2" index="2" disallow="pedestrian bicycle tram rail_urban rail rail_electric rail_fast ship" speed="13.39" length="14.43" shape="104.46,1163.80 100.83,1160.36 97.76,1158.09 95.77,1155.49 95.34,1151.06"/>
    </edge>
    <edge id=":1783639826_3" function="internal">
        <lane id=":1783639826_3_0" index="0" disallow="pedestrian bicycle tram rail_urban rail rail_electric rail_fast ship" speed="16.67" length="13.24" shape="100.50,1164.82 101.71,1151.63"/>
        <lane id=":1783639826_3_1" index="1" disallow="pedestrian bicycle tram rail_urban rail rail_electric rail_fast ship" speed="16.67" length="13.24" shape="97.31,1164.53 98.53,1151.35"/>
        <lane id=":1783639826_3_2" index="2" disallow="pedestrian bicycle tram rail_urban rail rail_electric rail_fast ship" speed="16.67" length="13.24" shape="94.12,1164.23 95.34,1151.06"/>
        <lane id=":1783639826_3_3" index="3" disallow="pedestrian bicycle tram rail_urban rail rail_electric rail_fast ship" speed="16.67" length="13.24" shape="90.94,1163.94 92.15,1150.77"/>
    </edge>
    <edge id=":1833793772_0" function="internal">
        <lane id=":1833793772_0_0" index="0" disallow="tram rail_urban rail rail_electric rail_fast ship" speed="13.89" length="9.79" shape="238.57,404.98 235.98,403.00 234.45,401.15 232.80,399.65 229.86,398.74"/>
        <lane id=":1833793772_0_1" index="1" disallow="tram rail_urban rail rail_electric rail_fast ship" speed="13.89" length="9.79" shape="237.00,407.77 234.72,405.96 233.42,404.20 232.02,402.77 229.42,401.91"/>
        <lane id=":1833793772_0_2" index="2" disallow="tram rail_urban rail rail_electric rail_fast ship" speed="13.89" length="9.79" shape="237.00,407.77 234.78,406.56 233.18,405.86 231.48,405.45 228.98,405.08"/>
    </edge>
    <edge id=":233879721_0" function="internal">
        <lane id=":233879721_0_0" index="0" disallow="tram rail_urban rail rail_electric rail_fast ship" speed="10.55" length="10.60" shape="294.38,581.36 294.34,578.53 294.25,576.46 294.71,574.64 296.35,572.57"/>
        <lane id=":233879721_0_1" index="1" disallow="tram rail_urban rail rail_electric rail_fast ship" speed="11.76" length="10.60" shape="291.19,581.19 291.20,577.66 291.25,575.09 291.99,572.85 294.12,570.28"/>
    </edge>
    <edge id=":233879721_2" function="internal">
        <lane id=":233879721_2_0" index="0" disallow="tram rail_urban rail rail_electric rail_fast ship" speed="13.89" length="10.71" shape="287.49,579.06 290.25,577.31 292.16,576.12 293.95,574.78 296.35,572.57"/>
        <lane id=":233879721_2_1" index="1" disallow="tram rail_urban rail rail_electric rail_fast ship" speed="13.89" length="10.71" shape="285.73,576.38 288.35,574.73 290.16,573.62 291.85,572.36 294.12,570.28"/>
    </edge>
    <edge id=":234839739_0" function="internal">
        <lane id=":234839739_0_0" index="0" allow="private emergency authority army vip passenger hov taxi bus coach delivery truck trailer motorcycle evehicle custom1 custom2" speed="15.28" length="12.56" shape="107.44,1087.99 107.94,1084.32 108.65,1081.88 109.59,1079.48 110.83,1075.96"/>
        <lane id=":234839739_0_1" index="1" allow="private emergency authority army vip passenger hov taxi bus coach delivery truck trailer motorcycle evehicle custom1 custom2" speed="15.28" length="13.24" shape="104.25,1087.71 104.78,1083.84 105.50,1081.25 106.48,1078.72 107.78,1075.00"/>
    </edge>
    <edge id=":234839739_2" function="internal">
        <lane id=":234839739_2_0" index="0" disallow="pedestrian bicycle tram rail_urban rail rail_electric rail_fast ship" speed="16.67" length="13.41" shape="101.07,1087.42 101.78,1083.51 102.78,1080.91 103.73,1078.31 104.27,1074.39"/>
        <lane id=":234839739_2_1" index="1" disallow="pedestrian bicycle tram rail_urban rail rail_electric rail_fast ship" speed="16.67" length="13.41" shape="97.88,1087.13 98.59,1083.26 99.59,1080.70 100.53,1078.13 101.07,1074.25"/>
    </edge>
    <edge id=":235070001_0" function="internal">
        <lane id=":235070001_0_0" index="0" allow="vip" speed="10.59" length="17.91" shape="249.99,990.64 247.11,989.01 244.84,985.95 243.17,981.47 242.11,975.56"/>
    </edge>
    <edge id=":235070001_1" function="internal">
        <lane id=":235070001_1_0" index="0" allow="vip" speed="19.96" length="20.75" shape="249.99,990.64 244.57,988.46 241.46,985.79 238.88,982.27 235.06,977.52"/>
        <lane id=":235070001_1_1" index="1" allow="vip" speed="20.30" length="20.75" shape="248.04,993.41 242.54,991.13 239.30,988.27 236.60,984.55 232.70,979.69"/>
    </edge>
    <edge id=":235070001_3" function="internal">
        <lane id=":235070001_3_0" index="0" disallow="tram rail_urban rail rail_electric rail_fast ship" speed="16.67" length="20.39" shape="244.20,995.78 242.11,975.56"/>
        <lane id=":235070001_3_1" index="1" disallow="tram rail_urban rail rail_electric rail_fast ship" speed="16.67" length="20.39" shape="241.02,996.17 238.92,975.83"/>
    </edge>
    <edge id=":235070001_5" function="internal">
        <lane id=":235070001_5_0" index="0" allow="vip" speed="17.27" length="19.00" shape="241.02,996.17 240.12,990.69 238.77,987.05 236.47,983.85 232.70,979.69"/>
    </edge>
    <edge id=":3076643620_0" function="internal">
        <lane id=":3076643620_0_0" index="0" disallow="tram rail_urban rail rail_electric rail_fast ship" speed="15.28" length="11.33" shape="224.34,600.60 227.61,600.30 229.85,600.71 232.08,601.58 235.29,602.62"/>
        <lane id=":3076643620_0_1" index="1" disallow="tram rail_urban rail rail_electric rail_fast ship" speed="15.28" length="12.71" shape="223.77,597.45 227.44,597.08 229.97,597.48 232.48,598.38 236.09,599.53"/>
    </edge>
    <edge id=":3076643620_2" function="internal">
        <lane id=":3076643620_2_0" index="0" disallow="tram rail_urban rail rail_electric rail_fast ship" speed="13.89" length="13.41" shape="223.19,594.30 227.06,594.17 229.73,594.96 232.41,595.80 236.30,595.80"/>
        <lane id=":3076643620_2_1" index="1" disallow="tram rail_urban rail rail_electric rail_fast ship" speed="13.89" length="13.41" shape="222.62,591.15 226.52,591.02 229.21,591.81 231.92,592.64 235.84,592.63"/>
    </edge>
    <edge id=":3736885019_0" function="internal">
        <lane id=":3736885019_0_0" index="0" disallow="tram rail_urban rail rail_electric rail_fast ship" speed="13.89" length="7.66" shape="182.20,606.24 184.57,606.32 186.20,606.71 187.82,607.02 190.16,606.85"/>
        <lane id=":3736885019_0_1" index="1" disallow="tram rail_urban rail rail_electric rail_fast ship" speed="13.89" length="7.66" shape="182.20,606.24 184.46,605.83 185.91,605.13 187.36,604.35 189.58,603.70"/>
        <lane id=":3736885019_0_2" index="2" disallow="tram rail_urban rail rail_electric rail_fast ship" speed="13.89" length="7.66" shape="181.97,603.05 184.13,602.64 185.51,601.95 186.88,601.19 189.01,600.55"/>
        <lane id=":3736885019_0_3" index="3" disallow="tram rail_urban rail rail_electric rail_fast ship" speed="13.89" length="7.66" shape="181.75,599.86 183.80,599.46 185.11,598.78 186.41,598.02 188.43,597.40"/>
    </edge>
    <edge id=":410472692_0" function="internal">
        <lane id=":410472692_0_0" index="0" disallow="tram rail_urban rail rail_electric rail_fast ship" speed="13.89" length="5.56" shape="190.25,399.47 187.24,394.90"/>
        <lane id=":410472692_0_1" index="1" disallow="tram rail_urban rail rail_electric rail_fast ship" speed="13.89" length="5.56" shape="190.59,402.65 187.40,398.09"/>
        <lane id=":410472692_0_2" index="2" disallow="tram rail_urban rail rail_electric rail_fast ship" speed="13.89" length="5.56" shape="190.92,405.83 187.57,401.29"/>
    </edge>
    <edge id=":410472692_3" function="internal">
        <lane id=":410472692_3_0" index="0" allow="bus bicycle" speed="3.65" length="0.16" shape="187.74,404.48 187.87,404.39"/>
    </edge>
    <edge id=":410472692_4" function="internal">
        <lane id=":410472692_4_0" index="0" allow="bus bicycle" speed="3.65" length="4.51" shape="187.87,404.39 188.89,403.62 189.25,402.80 188.81,402.02 187.57,401.29"/>
    </edge>
    <edge id=":4600854637_0" function="internal">
        <lane id=":4600854637_0_0" index="0" disallow="tram rail_urban rail rail_electric rail_fast ship" speed="13.89" length="13.80" shape="50.11,636.43 50.02,650.22"/>
    </edge>
    <edge id=":4600854637_1" function="internal">
        <lane id=":4600854637_1_0" index="0" disallow="tram rail_urban rail rail_electric rail_fast ship" speed="13.89" length="13.87" shape="46.15,637.08 47.83,640.25 49.06,643.40 49.79,646.67 50.02,650.22"/>
    </edge>
    <edge id=":4608884008_0" function="internal">
        <lane id=":4608884008_0_0" index="0" disallow="tram rail_urban rail rail_electric rail_fast ship" speed="13.89" length="8.18" shape="49.38,717.07 49.10,719.45 48.53,721.03 47.94,722.62 47.61,724.99"/>
        <lane id=":4608884008_0_1" index="1" disallow="tram rail_urban rail rail_electric rail_fast ship" speed="13.89" length="8.18" shape="49.38,717.07 49.60,719.47 50.13,721.09 50.64,722.70 50.81,725.10"/>
    </edge>
    <edge id=":4726227141_0" function="internal">
        <lane id=":4726227141_0_0" index="0" disallow="tram rail_urban rail rail_electric rail_fast ship" speed="10.20" length="13.31" shape="81.88,616.28 84.26,613.38 86.72,611.30 89.24,610.05 91.84,609.62"/>
        <lane id=":4726227141_0_1" index="1" disallow="tram rail_urban rail rail_electric rail_fast ship" speed="10.89" length="13.31" shape="80.04,613.36 82.61,610.34 85.43,608.18 88.50,606.87 91.82,606.42"/>
    </edge>
    <edge id=":4726227141_2" function="internal">
        <lane id=":4726227141_2_0" index="0" disallow="tram rail_urban rail rail_electric rail_fast ship" speed="13.89" length="12.97" shape="78.77,609.29 91.84,609.62"/>
        <lane id=":4726227141_2_1" index="1" disallow="tram rail_urban rail rail_electric rail_fast ship" speed="13.89" length="12.97" shape="78.85,606.09 91.82,606.42"/>
        <lane id=":4726227141_2_2" index="2" disallow="tram rail_urban rail rail_electric rail_fast ship" speed="13.89" length="12.97" shape="78.93,602.89 91.79,603.22"/>
    </edge>
    <edge id=":4732339357_0" function="internal">
        <lane id=":4732339357_0_0" index="0" disallow="tram rail_urban rail rail_electric rail_fast ship" speed="13.89" length="6.04" shape="62.76,696.95 62.56,695.20 62.05,694.05 61.54,692.89 61.35,691.15"/>
        <lane id=":4732339357_0_1" index="1" disallow="tram rail_urban rail rail_electric rail_fast ship" speed="13.89" length="6.04" shape="59.56,696.87 59.36,695.12 58.85,693.96 58.34,692.80 58.15,691.05"/>
    </edge>
    <edge id=":4732339357_2" function="internal">
        <lane id=":4732339357_2_0" index="0" disallow="pedestrian tram rail_urban rail rail_electric rail_fast ship" speed="5.06" length="4.42" shape="56.37,696.79 56.27,695.38 55.92,694.32 55.30,693.61 54.42,693.25"/>
    </edge>
    <edge id=":4732339359_0" function="internal">
        <lane id=":4732339359_0_0" index="0" disallow="tram rail_urban rail rail_electric rail_fast ship" speed="13.89" length="11.25" shape="49.66,686.99 49.55,698.24"/>
    </edge>
    <edge id=":4732339359_1" function="internal">
        <lane id=":4732339359_1_0" index="0" disallow="pedestrian tram rail_urban rail rail_electric rail_fast ship" speed="5.88" length="8.15" shape="54.23,693.21 52.20,693.19 50.75,694.03 49.87,695.71 49.55,698.24"/>
    </edge>
    <edge id=":5165925965_0" function="internal">
        <lane id=":5165925965_0_0" index="0" allow="bus bicycle" speed="7.82" length="22.32" shape="41.68,395.47 37.87,400.89 36.72,406.44 38.58,410.67 43.79,412.15"/>
    </edge>
    <edge id=":5165925965_1" function="internal">
        <lane id=":5165925965_1_0" index="0" allow="bus bicycle" speed="3.65" length="4.67" shape="43.62,408.95 42.46,409.82 42.11,410.64 42.55,411.41 43.79,412.15"/>
    </edge>
    <edge id=":5411304502_0" function="internal">
        <lane id=":5411304502_0_0" index="0" allow="vip" speed="83.33" length="15.63" shape="302.52,946.61 299.41,949.63 297.81,952.19 296.50,955.00 294.21,958.79"/>
        <lane id=":5411304502_0_1" index="1" allow="vip" speed="83.33" length="15.63" shape="306.44,947.54 302.94,950.82 301.03,953.52 299.42,956.51 296.83,960.63"/>
    </edge>
    <edge id=":5411304502_2" function="internal">
        <lane id=":5411304502_2_0" index="0" allow="vip" speed="21.22" length="17.33" shape="309.37,949.64 304.39,951.75 300.75,953.01 297.62,954.88 294.21,958.79"/>
        <lane id=":5411304502_2_1" index="1" allow="vip" speed="20.31" length="17.33" shape="310.82,952.49 306.25,954.39 302.87,955.46 299.97,957.09 296.83,960.63"/>
    </edge>
    <edge id=":595497896_0" function="internal">
        <lane id=":595497896_0_0" index="0" disallow="tram rail_urban rail rail_electric rail_fast ship" speed="13.89" length="9.08" shape="41.84,829.86 41.34,832.27 40.91,833.91 40.33,835.49 39.37,837.76"/>
        <lane id=":595497896_0_1" index="1" disallow="tram rail_urban rail rail_electric rail_fast ship" speed="13.89" length="9.08" shape="44.98,830.50 44.43,833.10 43.97,834.87 43.34,836.58 42.31,839.03"/>
        <lane id=":595497896_0_2" index="2" disallow="tram rail_urban rail rail_electric rail_fast ship" speed="13.89" length="9.08" shape="44.98,830.50 44.88,833.42 45.47,835.51 45.88,837.54 45.25,840.29"/>
    </edge>
    <edge id=":5992820068_0" function="internal">
        <lane id=":5992820068_0_0" index="0" disallow="pedestrian bicycle tram rail_urban rail rail_electric rail_fast ship" speed="16.67" length="8.21" shape="152.65,339.37 152.70,336.96 153.13,335.32 153.56,333.68 153.65,331.27"/>
    </edge>
    <edge id=":6024734597_0" function="internal">
        <lane id=":6024734597_0_0" index="0" disallow="tram rail_urban rail rail_electric rail_fast ship" speed="13.89" length="8.19" shape="59.69,751.90 60.04,749.50 60.65,747.92 61.25,746.33 61.56,743.93"/>
        <lane id=":6024734597_0_1" index="1" disallow="tram rail_urban rail rail_electric rail_fast ship" speed="13.89" length="8.19" shape="56.49,751.76 56.84,749.38 57.45,747.80 58.05,746.23 58.36,743.85"/>
        <lane id=":6024734597_0_2" index="2" disallow="tram rail_urban rail rail_electric rail_fast ship" speed="13.89" length="8.19" shape="56.49,751.76 56.34,749.37 55.85,747.76 55.35,746.16 55.16,743.77"/>
    </edge>
    <edge id=":634071195_0" function="internal">
        <lane id=":634071195_0_0" index="0" allow="vip" speed="6.13" length="9.63" shape="104.56,399.30 102.15,398.99 100.66,397.77 100.11,395.64 100.48,392.59"/>
        <lane id=":634071195_0_1" index="1" allow="vip" speed="7.42" length="14.69" shape="104.56,399.30 100.74,398.86 98.37,397.05 97.44,393.88 97.96,389.35"/>
    </edge>
    <edge id=":634071195_2" function="internal">
        <lane id=":634071195_2_0" index="0" disallow="tram rail_urban rail rail_electric rail_fast ship" speed="13.89" length="11.91" shape="104.56,399.30 101.07,398.98 98.74,398.01 96.42,397.03 92.93,396.72"/>
        <lane id=":634071195_2_1" index="1" disallow="tram rail_urban rail rail_electric rail_fast ship" speed="13.89" length="11.91" shape="104.73,402.49 101.24,402.18 98.91,401.20 96.59,400.23 93.10,399.91"/>
        <lane id=":634071195_2_2" index="2" disallow="tram rail_urban rail rail_electric rail_fast ship" speed="13.89" length="11.91" shape="104.90,405.69 101.41,405.37 99.08,404.40 96.76,403.42 93.27,403.11"/>
        <lane id=":634071195_2_3" index="3" disallow="tram rail_urban rail rail_electric rail_fast ship" speed="13.89" length="11.91" shape="104.90,405.69 93.44,406.30"/>
    </edge>
    <edge id=":634071195_6" function="internal">
        <lane id=":634071195_6_0" index="0" allow="bus bicycle" speed="3.65" length="1.44" shape="104.90,405.69 103.74,406.55"/>
    </edge>
    <edge id=":634071195_9" function="internal">
        <lane id=":634071195_9_0" index="0" allow="bus bicycle" speed="3.65" length="3.23" shape="103.74,406.55 103.39,407.37 103.83,408.15 105.07,408.88"/>
    </edge>
    <edge id=":634071195_7" function="internal">
        <lane id=":634071195_7_0" index="0" allow="bus bicycle" speed="13.89" length="11.48" shape="93.61,409.50 105.07,408.88"/>
    </edge>
    <edge id=":634071195_8" function="internal">
        <lane id=":634071195_8_0" index="0" allow="bus bicycle" speed="3.65" length="1.44" shape="93.61,409.50 94.76,408.64"/>
    </edge>
    <edge id=":634071195_10" function="internal">
        <lane id=":634071195_10_0" index="0" allow="bus bicycle" speed="3.65" length="3.23" shape="94.76,408.64 95.12,407.82 94.68,407.04 93.44,406.30"/>
    </edge>
    <edge id=":6639134876_0" function="internal">
        <lane id=":6639134876_0_0" index="0" disallow="tram rail_urban rail rail_electric rail_fast ship" speed="13.89" length="9.99" shape="65.60,644.31 66.08,641.54 67.18,639.86 68.71,638.31 70.53,635.94"/>
        <lane id=":6639134876_0_1" index="1" disallow="tram rail_urban rail rail_electric rail_fast ship" speed="13.89" length="12.00" shape="62.41,644.21 62.93,640.84 64.13,638.75 65.87,636.83 68.01,633.94"/>
    </edge>
    <edge id=":6639134876_2" function="internal">
        <lane id=":6639134876_2_0" index="0" disallow="tram rail_urban rail rail_electric rail_fast ship" speed="13.89" length="11.76" shape="62.41,644.21 62.77,640.76 63.40,638.43 64.03,636.11 64.40,632.66"/>
        <lane id=":6639134876_2_1" index="1" disallow="tram rail_urban rail rail_electric rail_fast ship" speed="13.89" length="11.76" shape="59.21,644.11 59.57,640.65 60.20,638.33 60.83,636.00 61.20,632.55"/>
        <lane id=":6639134876_2_2" index="2" disallow="tram rail_urban rail rail_electric rail_fast ship" speed="13.89" length="11.76" shape="56.01,644.00 56.37,640.55 57.00,638.22 57.63,635.90 58.00,632.44"/>
    </edge>
    <edge id=":7016947288_0" function="internal">