<?xml version="1.0" encoding="UTF-8"?>

<!-- generated on 2023-07-14 15:25:16 by Eclipse SUMO netconvert Version 1.17.0
<configuration xmlns:xsi="http://www.w3.org/2001/XMLSchema-instance" xsi:noNamespaceSchemaLocation="http://sumo.dlr.de/xsd/netconvertConfiguration.xsd">

    <input>
        <sumo-net-file value="osm.net.xml.gz"/>
    </input>

    <output>
        <output-file value="osm.net.xml"/>
        <output.street-names value="true"/>
    </output>

    <processing>
        <geometry.min-radius.fix.railways value="false"/>
        <geometry.max-grade.fix value="false"/>
        <offset.disable-normalization value="true"/>
        <lefthand value="0"/>
    </processing>

    <junctions>
        <no-turnarounds value="true"/>
        <junctions.corner-detail value="5"/>
        <junctions.limit-turn-speed value="5.50"/>
        <rectangular-lane-cut value="0"/>
    </junctions>

    <pedestrian>
        <walkingareas value="0"/>
    </pedestrian>

</configuration>
-->

<net version="1.16" junctionCornerDetail="5" limitTurnSpeed="5.50" xmlns:xsi="http://www.w3.org/2001/XMLSchema-instance" xsi:noNamespaceSchemaLocation="http://sumo.dlr.de/xsd/net_file.xsd">

    <location netOffset="-362341.81,-144343.10" convBoundary="0.00,0.00,228.77,227.34" origBoundary="103.762677,1.305609,103.764733,1.307666" projParameter="+proj=utm +zone=48 +ellps=WGS84 +datum=WGS84 +units=m +no_defs"/>

    <type id="highway.bridleway" priority="1" numLanes="1" speed="2.78" allow="pedestrian" oneway="1" width="2.00"/>
    <type id="highway.bus_guideway" priority="1" numLanes="1" speed="27.78" allow="bus" oneway="1"/>
    <type id="highway.cycleway" priority="1" numLanes="1" speed="5.56" allow="bicycle" oneway="0" width="1.00"/>
    <type id="highway.footway" priority="1" numLanes="1" speed="2.78" allow="pedestrian" oneway="1" width="2.00"/>
    <type id="highway.ford" priority="1" numLanes="1" speed="2.78" allow="army" oneway="0"/>
    <type id="highway.living_street" priority="2" numLanes="1" speed="2.78" disallow="tram rail_urban rail rail_electric rail_fast ship" oneway="0"/>
    <type id="highway.motorway" priority="14" numLanes="2" speed="39.44" allow="private emergency authority army vip passenger hov taxi bus coach delivery truck trailer motorcycle evehicle custom1 custom2" oneway="1"/>
    <type id="highway.motorway_link" priority="9" numLanes="1" speed="22.22" allow="private emergency authority army vip passenger hov taxi bus coach delivery truck trailer motorcycle evehicle custom1 custom2" oneway="1"/>
    <type id="highway.path" priority="1" numLanes="1" speed="5.56" allow="pedestrian bicycle" oneway="0" width="2.00"/>
    <type id="highway.pedestrian" priority="1" numLanes="1" speed="2.78" allow="pedestrian" oneway="1" width="2.00"/>
    <type id="highway.primary" priority="12" numLanes="2" speed="27.78" disallow="tram rail_urban rail rail_electric rail_fast ship" oneway="0"/>
    <type id="highway.primary_link" priority="7" numLanes="1" speed="22.22" disallow="tram rail_urban rail rail_electric rail_fast ship" oneway="0"/>
    <type id="highway.raceway" priority="15" numLanes="2" speed="83.33" allow="vip" oneway="0"/>
    <type id="highway.residential" priority="3" numLanes="1" speed="13.89" disallow="tram rail_urban rail rail_electric rail_fast ship" oneway="0"/>
    <type id="highway.secondary" priority="11" numLanes="1" speed="27.78" disallow="tram rail_urban rail rail_electric rail_fast ship" oneway="0"/>
    <type id="highway.secondary_link" priority="6" numLanes="1" speed="22.22" disallow="tram rail_urban rail rail_electric rail_fast ship" oneway="0"/>
    <type id="highway.service" priority="1" numLanes="1" speed="5.56" allow="pedestrian delivery bicycle" oneway="0"/>
    <type id="highway.stairs" priority="1" numLanes="1" speed="1.39" allow="pedestrian" oneway="1" width="2.00"/>
    <type id="highway.step" priority="1" numLanes="1" speed="1.39" allow="pedestrian" oneway="1" width="2.00"/>
    <type id="highway.steps" priority="1" numLanes="1" speed="1.39" allow="pedestrian" oneway="1" width="2.00"/>
    <type id="highway.tertiary" priority="10" numLanes="1" speed="22.22" disallow="tram rail_urban rail rail_electric rail_fast ship" oneway="0"/>
    <type id="highway.tertiary_link" priority="5" numLanes="1" speed="22.22" disallow="tram rail_urban rail rail_electric rail_fast ship" oneway="0"/>
    <type id="highway.track" priority="1" numLanes="1" speed="5.56" allow="pedestrian motorcycle moped bicycle" oneway="0"/>
    <type id="highway.trunk" priority="13" numLanes="2" speed="27.78" disallow="pedestrian bicycle tram rail_urban rail rail_electric rail_fast ship" oneway="0"/>
    <type id="highway.trunk_link" priority="8" numLanes="1" speed="22.22" disallow="pedestrian bicycle tram rail_urban rail rail_electric rail_fast ship" oneway="0"/>
    <type id="highway.unclassified" priority="4" numLanes="1" speed="13.89" disallow="tram rail_urban rail rail_electric rail_fast ship" oneway="0"/>
    <type id="highway.unsurfaced" priority="1" numLanes="1" speed="8.33" disallow="tram rail_urban rail rail_electric rail_fast ship" oneway="0"/>
    <type id="railway.highspeed" priority="21" numLanes="1" speed="69.44" allow="rail_fast" oneway="1"/>
    <type id="railway.light_rail" priority="19" numLanes="1" speed="27.78" allow="rail_urban" oneway="1"/>
    <type id="railway.preserved" priority="16" numLanes="1" speed="27.78" allow="rail" oneway="1"/>
    <type id="railway.rail" priority="20" numLanes="1" speed="44.44" allow="rail" oneway="1"/>
    <type id="railway.subway" priority="18" numLanes="1" speed="27.78" allow="rail_urban" oneway="1"/>
    <type id="railway.tram" priority="17" numLanes="1" speed="13.89" allow="tram" oneway="1"/>

    <edge id=":1218554514_0" function="internal">
        <lane id=":1218554514_0_0" index="0" disallow="tram rail_urban rail rail_electric rail_fast ship" speed="13.89" length="21.51" shape="48.24,54.79 44.93,48.79 42.66,43.52 41.05,38.96 39.71,35.11"/>
    </edge>
    <edge id=":1218554514_1" function="internal">
        <lane id=":1218554514_1_0" index="0" disallow="tram rail_urban rail rail_electric rail_fast ship" speed="13.89" length="21.38" shape="54.56,50.29 50.83,47.27 46.33,43.29 42.23,39.02 39.71,35.11"/>
    </edge>
    <edge id=":1218554528_0" function="internal">
        <lane id=":1218554528_0_0" index="0" disallow="tram rail_urban rail rail_electric rail_fast ship" speed="13.89" length="13.79" shape="54.68,70.09 56.81,73.49 58.50,75.66 60.27,77.79 62.64,81.04"/>
        <lane id=":1218554528_0_1" index="1" disallow="tram rail_urban rail rail_electric rail_fast ship" speed="13.89" length="13.79" shape="51.90,71.68 54.07,75.14 55.79,77.36 57.58,79.53 59.99,82.84"/>
        <lane id=":1218554528_0_2" index="2" disallow="tram rail_urban rail rail_electric rail_fast ship" speed="13.89" length="13.79" shape="49.13,73.28 51.34,76.80 53.07,79.05 54.89,81.26 57.33,84.63"/>
    </edge>
    <edge id=":1218554528_3" function="internal">
        <lane id=":1218554528_3_0" index="0" disallow="tram rail_urban rail rail_electric rail_fast ship" speed="13.89" length="13.88" shape="49.13,73.28 51.05,77.16 51.96,80.28 52.35,83.21 52.66,86.54"/>
    </edge>
    <edge id=":1218554535_0" function="internal">
        <lane id=":1218554535_0_0" index="0" disallow="tram rail_urban rail rail_electric rail_fast ship" speed="11.11" length="13.98" shape="115.55,54.55 113.55,58.23 112.76,61.08 111.94,63.90 109.82,67.49"/>
        <lane id=":1218554535_0_1" index="1" disallow="tram rail_urban rail rail_electric rail_fast ship" speed="11.11" length="13.98" shape="115.55,54.55 107.26,65.57"/>
        <lane id=":1218554535_0_2" index="2" disallow="tram rail_urban rail rail_electric rail_fast ship" speed="11.11" length="13.98" shape="112.92,52.72 104.70,63.65"/>
        <lane id=":1218554535_0_3" index="3" disallow="tram rail_urban rail rail_electric rail_fast ship" speed="11.11" length="13.98" shape="112.92,52.72 110.14,55.78 107.61,57.29 105.04,58.77 102.14,61.73"/>
    </edge>
    <edge id=":1218554535_4" function="internal">
        <lane id=":1218554535_4_0" index="0" disallow="tram rail_urban rail rail_electric rail_fast ship" speed="12.50" length="14.88" shape="112.92,52.72 109.82,55.92 106.62,57.30 103.29,57.83 99.78,58.46"/>
    </edge>
    <edge id=":246612166_0" function="internal">
        <lane id=":246612166_0_0" index="0" disallow="pedestrian tram rail_urban rail rail_electric rail_fast ship" speed="16.67" length="18.35" shape="103.63,132.85 107.32,136.74 109.75,139.53 112.38,142.08 116.66,145.25"/>
        <lane id=":246612166_0_1" index="1" disallow="pedestrian tram rail_urban rail rail_electric rail_fast ship" speed="16.67" length="18.35" shape="101.38,135.13 105.20,139.15 107.72,142.01 110.45,144.63 114.88,147.90"/>
    </edge>
    <edge id=":246612166_2" function="internal">
        <lane id=":246612166_2_0" index="0" disallow="pedestrian tram rail_urban rail rail_electric rail_fast ship" speed="15.28" length="18.80" shape="99.18,138.45 104.74,139.32 108.49,140.37 111.96,142.16 116.66,145.25"/>
        <lane id=":246612166_2_1" index="1" disallow="pedestrian tram rail_urban rail rail_electric rail_fast ship" speed="15.28" length="18.80" shape="97.77,141.49 103.20,142.30 106.88,143.25 110.28,144.92 114.88,147.90"/>
    </edge>
    <edge id=":2507183379_0" function="internal">
        <lane id=":2507183379_0_0" index="0" disallow="pedestrian tram rail_urban rail rail_electric rail_fast ship" speed="16.67" length="7.10" shape="111.34,133.13 109.82,131.72 109.02,130.49 108.21,129.27 106.68,127.88"/>
        <lane id=":2507183379_0_1" index="1" disallow="pedestrian tram rail_urban rail rail_electric rail_fast ship" speed="16.67" length="7.10" shape="113.24,130.55 111.71,129.14 110.90,127.91 110.09,126.68 108.55,125.28"/>
        <lane id=":2507183379_0_2" index="2" disallow="pedestrian tram rail_urban rail rail_electric rail_fast ship" speed="16.67" length="7.10" shape="115.14,127.97 113.60,126.55 112.79,125.32 111.97,124.09 110.43,122.69"/>
    </edge>
    <edge id=":2507183379_3" function="internal">
        <lane id=":2507183379_3_0" index="0" disallow="pedestrian tram rail_urban rail rail_electric rail_fast ship" speed="14.93" length="6.54" shape="117.04,125.40 115.57,124.17 114.76,123.13 114.14,121.91 113.25,120.18"/>
    </edge>
    <edge id=":2507225655_0" function="internal">
        <lane id=":2507225655_0_0" index="0" disallow="tram rail_urban rail rail_electric rail_fast ship" speed="3.65" length="4.67" shape="92.36,156.09 91.67,154.82 91.70,153.93 92.43,153.41 93.86,153.27"/>
    </edge>
    <edge id=":2507225668_0" function="internal">
        <lane id=":2507225668_0_0" index="0" disallow="tram rail_urban rail rail_electric rail_fast ship" speed="6.88" length="9.51" shape="129.17,174.05 126.80,173.43 124.69,173.74 122.84,174.99 121.26,177.17"/>
    </edge>
    <edge id=":2507225668_1" function="internal">
        <lane id=":2507225668_1_0" index="0" disallow="tram rail_urban rail rail_electric rail_fast ship" speed="11.11" length="14.43" shape="129.17,174.05 115.94,168.30"/>
    </edge>
    <edge id=":2507225668_2" function="internal">
        <lane id=":2507225668_2_0" index="0" disallow="tram rail_urban rail rail_electric rail_fast ship" speed="11.11" length="14.44" shape="117.22,165.36 130.45,171.12"/>
    </edge>
    <edge id=":2507225668_3" function="internal">
        <lane id=":2507225668_3_0" index="0" disallow="tram rail_urban rail rail_electric rail_fast ship" speed="7.85" length="14.55" shape="117.22,165.36 120.65,167.48 122.47,170.16 122.67,173.39 121.26,177.17"/>
    </edge>
    <edge id=":2507225668_4" function="internal">
        <lane id=":2507225668_4_0" index="0" disallow="tram rail_urban rail rail_electric rail_fast ship" speed="6.32" length="9.04" shape="118.45,175.64 119.33,173.28 119.20,171.28 118.07,169.61 115.94,168.30"/>
    </edge>
    <edge id=":2507225668_5" function="internal">
        <lane id=":2507225668_5_0" index="0" disallow="tram rail_urban rail rail_electric rail_fast ship" speed="8.31" length="14.34" shape="118.45,175.64 120.82,172.40 123.60,170.57 126.81,170.15 130.45,171.12"/>
    </edge>
    <edge id=":2507225683_0" function="internal">
        <lane id=":2507225683_0_0" index="0" disallow="tram rail_urban rail rail_electric rail_fast ship" speed="3.65" length="4.67" shape="119.06,181.20 117.79,181.87 116.89,181.83 116.38,181.10 116.26,179.66"/>
    </edge>
    <edge id=":2507312817_0" function="internal">
        <lane id=":2507312817_0_0" index="0" disallow="tram rail_urban rail rail_electric rail_fast ship" speed="11.11" length="12.48" shape="102.15,83.85 104.73,81.27 106.56,79.55 108.26,77.73 110.49,74.85"/>
        <lane id=":2507312817_0_1" index="1" disallow="tram rail_urban rail rail_electric rail_fast ship" speed="11.11" length="12.48" shape="104.51,86.02 107.17,83.36 109.04,81.58 110.79,79.69 113.08,76.72"/>
    </edge>
    <edge id=":2507312817_2" function="internal">
        <lane id=":2507312817_2_0" index="0" disallow="tram rail_urban rail rail_electric rail_fast ship" speed="12.50" length="12.62" shape="110.10,88.63 110.02,85.36 110.21,82.67 111.08,79.98 113.08,76.72"/>
    </edge>
    <edge id=":2516024465_0" function="internal">
        <lane id=":2516024465_0_0" index="0" disallow="tram rail_urban rail rail_electric rail_fast ship" speed="13.89" length="15.04" shape="37.03,139.56 48.58,129.61"/>
        <lane id=":2516024465_0_1" index="1" disallow="tram rail_urban rail rail_electric rail_fast ship" speed="13.89" length="15.04" shape="39.22,141.88 50.63,132.07"/>
        <lane id=":2516024465_0_2" index="2" disallow="tram rail_urban rail rail_electric rail_fast ship" speed="13.89" length="15.04" shape="41.42,144.21 52.67,134.54"/>
    </edge>
    <edge id=":2516024465_3" function="internal">
        <lane id=":2516024465_3_0" index="0" disallow="tram rail_urban rail rail_electric rail_fast ship" speed="13.89" length="14.64" shape="41.42,144.21 44.61,141.32 47.14,139.66 50.02,138.78 54.28,138.20"/>
        <lane id=":2516024465_3_1" index="1" disallow="tram rail_urban rail rail_electric rail_fast ship" speed="13.89" length="14.08" shape="41.42,144.21 44.63,141.90 47.38,141.32 50.47,141.47 54.69,141.38"/>
    </edge>
    <edge id=":2516876545_0" function="internal">
        <lane id=":2516876545_0_0" index="0" disallow="tram rail_urban rail rail_electric rail_fast ship" speed="13.89" length="9.23" shape="55.88,117.43 48.99,123.60"/>
        <lane id=":2516876545_0_1" index="1" disallow="tram rail_urban rail rail_electric rail_fast ship" speed="13.89" length="9.23" shape="53.75,115.05 46.89,121.18"/>
    </edge>
    <edge id=":2516876545_2" function="internal">
        <lane id=":2516876545_2_0" index="0" disallow="tram rail_urban rail rail_electric rail_fast ship" speed="13.21" length="9.22" shape="50.47,112.95 49.83,115.64 49.46,117.57 48.69,119.26 46.89,121.18"/>
    </edge>
    <edge id=":5991226898_0" function="internal">
        <lane id=":5991226898_0_0" index="0" disallow="tram rail_urban rail rail_electric rail_fast ship" speed="13.89" length="8.10" shape="33.42,35.99 34.70,37.94 35.91,39.05 37.15,40.14 38.53,42.04"/>
        <lane id=":5991226898_0_1" index="1" disallow="tram rail_urban rail rail_electric rail_fast ship" speed="13.89" length="8.10" shape="30.57,37.44 31.87,39.43 33.10,40.57 34.35,41.70 35.75,43.63"/>
        <lane id=":5991226898_0_2" index="2" disallow="tram rail_urban rail rail_electric rail_fast ship" speed="13.89" length="8.10" shape="30.57,37.44 31.45,39.69 31.71,41.37 32.01,43.03 32.98,45.23"/>
    </edge>
    <edge id=":6263066277_0" function="internal">
        <lane id=":6263066277_0_0" index="0" disallow="tram rail_urban rail rail_electric rail_fast ship" speed="3.65" length="4.67" shape="229.64,226.00 230.21,227.32 230.11,228.21 229.34,228.66 227.90,228.68"/>
    </edge>
    <edge id=":cluster_246612176_2507183366_2507183371_5686515371_0" function="internal">
        <lane id=":cluster_246612176_2507183366_2507183371_5686515371_0_0" index="0" disallow="tram rail_urban rail rail_electric rail_fast ship" speed="7.66" length="13.07" shape="83.54,105.75 80.13,102.75 77.13,101.17 74.53,101.03 72.34,102.31"/>
    </edge>
    <edge id=":cluster_246612176_2507183366_2507183371_5686515371_1" function="internal">
        <lane id=":cluster_246612176_2507183366_2507183371_5686515371_1_0" index="0" disallow="tram rail_urban rail rail_electric rail_fast ship" speed="15.28" length="11.62" shape="83.54,105.75 81.39,103.11 80.27,101.01 79.16,98.91 77.04,96.24"/>
        <lane id=":cluster_246612176_2507183366_2507183371_5686515371_1_1" index="1" disallow="tram rail_urban rail rail_electric rail_fast ship" speed="15.28" length="11.62" shape="85.94,103.62 83.76,100.96 82.63,98.85 81.51,96.73 79.36,94.04"/>
    </edge>
    <edge id=":cluster_246612176_2507183366_2507183371_5686515371_3" function="internal">
        <lane id=":cluster_246612176_2507183366_2507183371_5686515371_3_0" index="0" disallow="tram rail_urban rail rail_electric rail_fast ship" speed="6.49" length="9.71" shape="88.33,101.50 89.15,107.44 87.77,110.88"/>
    </edge>
    <edge id=":cluster_246612176_2507183366_2507183371_5686515371_16" function="internal">
        <lane id=":cluster_246612176_2507183366_2507183371_5686515371_16_0" index="0" disallow="tram rail_urban rail rail_electric rail_fast ship" speed="6.49" length="9.71" shape="87.77,110.88 84.18,111.85 78.38,110.32"/>
    </edge>
    <edge id=":cluster_246612176_2507183366_2507183371_5686515371_4" function="internal">
        <lane id=":cluster_246612176_2507183366_2507183371_5686515371_4_0" index="0" disallow="tram rail_urban rail rail_electric rail_fast ship" speed="7.28" length="10.50" shape="81.40,98.77 79.67,101.25 79.00,103.66 79.36,105.97 80.78,108.20"/>
    </edge>
    <edge id=":cluster_246612176_2507183366_2507183371_5686515371_5" function="internal">
        <lane id=":cluster_246612176_2507183366_2507183371_5686515371_5_0" index="0" disallow="tram rail_urban rail rail_electric rail_fast ship" speed="12.50" length="8.84" shape="79.08,96.56 77.22,98.41 75.78,99.50 74.30,100.55 72.34,102.31"/>
        <lane id=":cluster_246612176_2507183366_2507183371_5686515371_5_1" index="1" disallow="tram rail_urban rail rail_electric rail_fast ship" speed="12.50" length="8.84" shape="76.76,94.35 74.92,96.19 73.48,97.27 72.01,98.31 70.07,100.06"/>
    </edge>
    <edge id=":cluster_246612176_2507183366_2507183371_5686515371_7" function="internal">
        <lane id=":cluster_246612176_2507183366_2507183371_5686515371_7_0" index="0" disallow="tram rail_urban rail rail_electric rail_fast ship" speed="7.34" length="12.80" shape="74.44,92.15 82.14,90.40 86.83,91.84"/>
    </edge>
    <edge id=":cluster_246612176_2507183366_2507183371_5686515371_17" function="internal">
        <lane id=":cluster_246612176_2507183366_2507183371_5686515371_17_0" index="0" disallow="tram rail_urban rail rail_electric rail_fast ship" speed="7.34" length="12.80" shape="86.83,91.84 88.50,96.44 87.14,104.23"/>
    </edge>
    <edge id=":cluster_246612176_2507183366_2507183371_5686515371_8" function="internal">
        <lane id=":cluster_246612176_2507183366_2507183371_5686515371_8_0" index="0" disallow="tram rail_urban rail rail_electric rail_fast ship" speed="7.09" length="12.34" shape="74.83,98.33 77.68,101.55 80.29,103.24 82.67,103.39 84.82,102.02"/>
    </edge>
    <edge id=":cluster_246612176_2507183366_2507183371_5686515371_9" function="internal">
        <lane id=":cluster_246612176_2507183366_2507183371_5686515371_9_0" index="0" disallow="tram rail_urban rail rail_electric rail_fast ship" speed="15.28" length="11.51" shape="74.83,98.33 76.67,101.22 77.66,103.38 78.72,105.49 80.78,108.20"/>
        <lane id=":cluster_246612176_2507183366_2507183371_5686515371_9_1" index="1" disallow="tram rail_urban rail rail_electric rail_fast ship" speed="15.28" length="11.51" shape="72.49,100.55 74.32,103.41 75.30,105.55 76.34,107.64 78.38,110.32"/>
    </edge>
    <edge id=":cluster_246612176_2507183366_2507183371_5686515371_11" function="internal">
        <lane id=":cluster_246612176_2507183366_2507183371_5686515371_11_0" index="0" disallow="tram rail_urban rail rail_electric rail_fast ship" speed="6.43" length="9.26" shape="70.16,102.77 69.18,97.13 70.39,93.80"/>
    </edge>
    <edge id=":cluster_246612176_2507183366_2507183371_5686515371_18" function="internal">
        <lane id=":cluster_246612176_2507183366_2507183371_5686515371_18_0" index="0" disallow="tram rail_urban rail rail_electric rail_fast ship" speed="6.43" length="9.26" shape="70.39,93.80 73.79,92.77 79.36,94.04"/>
    </edge>
    <edge id=":cluster_246612176_2507183366_2507183371_5686515371_12" function="internal">
        <lane id=":cluster_246612176_2507183366_2507183371_5686515371_12_0" index="0" disallow="tram rail_urban rail rail_electric rail_fast ship" speed="7.38" length="12.57" shape="77.18,107.09 79.31,104.66 80.00,102.04 79.24,99.24 77.04,96.24"/>
    </edge>
    <edge id=":cluster_246612176_2507183366_2507183371_5686515371_13" function="internal">
        <lane id=":cluster_246612176_2507183366_2507183371_5686515371_13_0" index="0" disallow="tram rail_urban rail rail_electric rail_fast ship" speed="12.50" length="9.25" shape="77.18,107.09 79.42,105.54 81.15,104.72 82.79,103.81 84.82,102.02"/>
        <lane id=":cluster_246612176_2507183366_2507183371_5686515371_13_1" index="1" disallow="tram rail_urban rail rail_electric rail_fast ship" speed="12.50" length="9.25" shape="79.46,109.36 81.72,107.79 83.45,106.95 85.10,106.03 87.14,104.23"/>
    </edge>
    <edge id=":cluster_246612176_2507183366_2507183371_5686515371_15" function="internal">
        <lane id=":cluster_246612176_2507183366_2507183371_5686515371_15_0" index="0" disallow="tram rail_urban rail rail_electric rail_fast ship" speed="7.21" length="12.00" shape="81.75,111.62 74.49,113.11 70.13,111.68"/>
    </edge>
    <edge id=":cluster_246612176_2507183366_2507183371_5686515371_19" function="internal">
        <lane id=":cluster_246612176_2507183366_2507183371_5686515371_19_0" index="0" disallow="tram rail_urban rail rail_electric rail_fast ship" speed="7.21" length="12.00" shape="70.13,111.68 68.65,107.33 70.07,100.06"/>
    </edge>

    <edge id="-243293980" from="6263066277" to="2507225668" name="Mas Kuning Terrace" priority="3" type="highway.residential" shape="228.77,227.34 206.00,212.57 175.80,191.88 154.13,183.16 125.61,170.76 123.46,169.82">
        <lane id="-243293980_0" index="0" disallow="tram rail_urban rail rail_electric rail_fast ship" speed="11.11" length="113.36" shape="227.90,228.68 205.11,213.90 175.04,193.30 153.51,184.64 129.17,174.05">
            <param key="origId" value="243293980"/>
        </lane>
    </edge>
    <edge id="-243293982" from="2507225683" to="2507225668" name="Mas Kuning Terrace" priority="3" type="highway.residential" shape="117.66,180.43 121.04,174.24 123.46,169.82">
        <lane id="-243293982_0" index="0" disallow="tram rail_urban rail rail_electric rail_fast ship" speed="11.11" length="4.59" shape="116.26,179.66 118.45,175.64">
            <param key="origId" value="243293982"/>
        </lane>
    </edge>
    <edge id="-646441840" from="2507225668" to="2507225655" name="Mas Kuning Terrace" priority="3" type="highway.residential" shape="123.46,169.82 112.74,165.16 93.11,154.68">
        <lane id="-646441840_0" index="0" disallow="tram rail_urban rail rail_electric rail_fast ship" speed="11.11" length="26.57" shape="115.94,168.30 112.04,166.60 92.36,156.09">
            <param key="origId" value="646441840"/>
        </lane>
    </edge>
    <edge id="105824956" from="1218554535" to="1218554514" priority="6" type="highway.secondary_link" spreadType="center" shape="114.36,53.45 107.02,56.08 101.55,57.97 90.37,61.09 79.32,61.02 70.07,60.21 62.60,56.21 58.15,53.11 49.47,46.28 41.27,39.23">
        <lane id="105824956_0" index="0" disallow="tram rail_urban rail rail_electric rail_fast ship" speed="13.89" length="48.56" shape="99.78,58.46 90.37,61.09 79.32,61.02 70.07,60.21 62.60,56.21 58.15,53.11 54.56,50.29">
            <param key="origId" value="105824956"/>
        </lane>
    </edge>
    <edge id="243293980" from="2507225668" to="6263066277" name="Mas Kuning Terrace" priority="3" type="highway.residential" shape="123.46,169.82 125.61,170.76 154.13,183.16 175.80,191.88 206.00,212.57 228.77,227.34">
        <lane id="243293980_0" index="0" disallow="tram rail_urban rail rail_electric rail_fast ship" speed="11.11" length="113.89" shape="130.45,171.12 154.75,181.68 176.56,190.46 206.89,211.24 229.64,226.00">
            <param key="origId" value="243293980"/>
        </lane>
    </edge>
    <edge id="243293982" from="2507225668" to="2507225683" name="Mas Kuning Terrace" priority="3" type="highway.residential" shape="123.46,169.82 121.04,174.24 117.66,180.43">
        <lane id="243293982_0" index="0" disallow="tram rail_urban rail rail_electric rail_fast ship" speed="11.11" length="4.59" shape="121.26,177.17 119.06,181.20">
            <param key="origId" value="243293982"/>
        </lane>
    </edge>
    <edge id="243305243" from="cluster_246612176_2507183366_2507183371_5686515371" to="2507312817" name="West Coast Road" priority="11" type="highway.secondary" spreadType="center" shape="85.72,103.40 91.93,96.87 105.01,83.17 111.70,75.90">
        <lane id="243305243_0" index="0" disallow="tram rail_urban rail rail_electric rail_fast ship" speed="11.11" length="25.14" shape="84.82,102.02 90.77,95.77 102.15,83.85">
            <param key="origId" value="243305243"/>
        </lane>
        <lane id="243305243_1" index="1" disallow="tram rail_urban rail rail_electric rail_fast ship" speed="11.11" length="25.14" shape="87.14,104.23 93.09,97.97 104.51,86.02">
            <param key="origId" value="243305243"/>
        </lane>
        <param key="origFrom" value="246612176"/>
    </edge>
    <edge id="243305248" from="2507183379" to="2507312817" priority="6" type="highway.secondary_link" spreadType="center" shape="121.21,134.43 112.00,117.95 110.18,110.92 109.90,102.66 109.99,98.42 110.15,91.95 110.02,83.93 110.54,79.95 111.70,75.90">
        <lane id="243305248_0" index="0" disallow="tram rail_urban rail rail_electric rail_fast ship" speed="13.89" length="32.11" shape="113.25,120.18 112.00,117.95 110.18,110.92 109.90,102.66 109.99,98.42 110.15,91.95 110.10,88.63">
            <param key="origId" value="243305248"/>
        </lane>
    </edge>
    <edge id="244264209" from="2516024465" to="246612166" priority="6" type="highway.secondary_link" spreadType="center" shape="39.46,141.66 50.11,140.26 59.81,139.22 73.73,138.18 77.87,137.87 88.76,138.61 99.35,140.09 107.71,142.46 114.28,145.57">
        <lane id="244264209_0" index="0" disallow="tram rail_urban rail rail_electric rail_fast ship" speed="13.89" length="44.19" shape="54.28,138.20 59.67,137.63 73.61,136.58 77.86,136.27 88.93,137.02 99.18,138.45">
            <param key="origId" value="244264209"/>
        </lane>
        <lane id="244264209_1" index="1" disallow="tram rail_urban rail rail_electric rail_fast ship" speed="13.89" length="44.19" shape="54.69,141.38 59.95,140.81 73.85,139.78 77.88,139.47 88.59,140.20 97.77,141.49">
            <param key="origId" value="244264209"/>
        </lane>
    </edge>
    <edge id="244362469" from="246612166" to="6979393298" name="Clementi Avenue 2" priority="11" type="highway.secondary" spreadType="center" shape="114.28,145.57 127.71,154.61 141.15,160.82">
        <lane id="244362469_0" index="0" disallow="pedestrian tram rail_urban rail rail_electric rail_fast ship" speed="16.67" length="29.20" shape="116.66,145.25 128.50,153.21 141.82,159.37">
            <param key="origId" value="244362469"/>
        </lane>
        <lane id="244362469_1" index="1" disallow="pedestrian tram rail_urban rail rail_electric rail_fast ship" speed="16.67" length="29.20" shape="114.88,147.90 126.92,156.01 140.48,162.27">
            <param key="origId" value="244362469"/>
        </lane>
    </edge>
    <edge id="244362470" from="2507183379" to="cluster_246612176_2507183366_2507183371_5686515371" name="Clementi Avenue 2" priority="11" type="highway.secondary" spreadType="center" shape="121.21,134.43 106.06,123.48 99.49,117.56 95.31,113.26 90.69,108.51 85.72,103.40">
        <lane id="244362470_0" index="0" disallow="tram rail_urban rail rail_electric rail_fast ship" speed="16.67" length="31.36" shape="106.68,127.88 104.05,125.97 97.27,119.87 93.02,115.49 88.40,110.74 83.54,105.75">
            <param key="origId" value="244362470"/>
        </lane>
        <lane id="244362470_1" index="1" disallow="tram rail_urban rail rail_electric rail_fast ship" speed="16.67" length="31.36" shape="108.55,125.28 106.06,123.48 99.49,117.56 95.31,113.26 90.69,108.51 85.94,103.62">
            <param key="origId" value="244362470"/>
        </lane>
        <lane id="244362470_2" index="2" disallow="tram rail_urban rail rail_electric rail_fast ship" speed="16.67" length="31.36" shape="110.43,122.69 108.07,120.99 101.71,115.25 97.60,111.03 92.98,106.28 88.33,101.50">
            <param key="origId" value="244362470"/>
        </lane>
        <param key="origTo" value="246612176"/>
    </edge>
    <edge id="244362490" from="1218554528" to="2516876545" priority="6" type="highway.secondary_link" spreadType="center" shape="48.88,66.43 51.87,79.72 52.94,88.97 52.82,100.14 51.43,109.77 47.49,122.78">
        <lane id="244362490_0" index="0" disallow="tram rail_urban rail rail_electric rail_fast ship" speed="13.89" length="26.68" shape="52.66,86.54 52.94,88.97 52.82,100.14 51.43,109.77 50.47,112.95">