<?xml version="1.0" encoding="UTF-8"?>

<!-- generated on 2023-07-17 14:28:53 by Eclipse SUMO netconvert Version 1.17.0
<configuration xmlns:xsi="http://www.w3.org/2001/XMLSchema-instance" xsi:noNamespaceSchemaLocation="http://sumo.dlr.de/xsd/netconvertConfiguration.xsd">

    <input>
        <sumo-net-file value="osm.net.xml.gz"/>
    </input>

    <output>
        <output-file value="osm.net.xml"/>
        <output.street-names value="true"/>
    </output>

    <processing>
        <geometry.min-radius.fix.railways value="false"/>
        <geometry.max-grade.fix value="false"/>
        <offset.disable-normalization value="true"/>
        <lefthand value="0"/>
    </processing>

    <junctions>
        <no-turnarounds value="true"/>
        <junctions.corner-detail value="5"/>
        <junctions.limit-turn-speed value="5.50"/>
        <rectangular-lane-cut value="0"/>
    </junctions>

    <pedestrian>
        <walkingareas value="0"/>
    </pedestrian>

</configuration>
-->

<net version="1.16" junctionCornerDetail="5" limitTurnSpeed="5.50" xmlns:xsi="http://www.w3.org/2001/XMLSchema-instance" xsi:noNamespaceSchemaLocation="http://sumo.dlr.de/xsd/net_file.xsd">

    <location netOffset="-371042.26,-144539.56" convBoundary="0.00,0.00,591.64,667.74" origBoundary="103.840869,1.307423,103.846186,1.313465" projParameter="+proj=utm +zone=48 +ellps=WGS84 +datum=WGS84 +units=m +no_defs"/>

    <type id="highway.bridleway" priority="1" numLanes="1" speed="2.78" allow="pedestrian" oneway="1" width="2.00"/>
    <type id="highway.bus_guideway" priority="1" numLanes="1" speed="27.78" allow="bus" oneway="1"/>
    <type id="highway.cycleway" priority="1" numLanes="1" speed="5.56" allow="bicycle" oneway="0" width="1.00"/>
    <type id="highway.footway" priority="1" numLanes="1" speed="2.78" allow="pedestrian" oneway="1" width="2.00"/>
    <type id="highway.ford" priority="1" numLanes="1" speed="2.78" allow="army" oneway="0"/>
    <type id="highway.living_street" priority="2" numLanes="1" speed="2.78" disallow="tram rail_urban rail rail_electric rail_fast ship" oneway="0"/>
    <type id="highway.motorway" priority="14" numLanes="2" speed="39.44" allow="private emergency authority army vip passenger hov taxi bus coach delivery truck trailer motorcycle evehicle custom1 custom2" oneway="1"/>
    <type id="highway.motorway_link" priority="9" numLanes="1" speed="22.22" allow="private emergency authority army vip passenger hov taxi bus coach delivery truck trailer motorcycle evehicle custom1 custom2" oneway="1"/>
    <type id="highway.path" priority="1" numLanes="1" speed="5.56" allow="pedestrian bicycle" oneway="0" width="2.00"/>
    <type id="highway.pedestrian" priority="1" numLanes="1" speed="2.78" allow="pedestrian" oneway="1" width="2.00"/>
    <type id="highway.primary" priority="12" numLanes="2" speed="27.78" disallow="tram rail_urban rail rail_electric rail_fast ship" oneway="0"/>
    <type id="highway.primary_link" priority="7" numLanes="1" speed="22.22" disallow="tram rail_urban rail rail_electric rail_fast ship" oneway="0"/>
    <type id="highway.raceway" priority="15" numLanes="2" speed="83.33" allow="vip" oneway="0"/>
    <type id="highway.residential" priority="3" numLanes="1" speed="13.89" disallow="tram rail_urban rail rail_electric rail_fast ship" oneway="0"/>
    <type id="highway.secondary" priority="11" numLanes="1" speed="27.78" disallow="tram rail_urban rail rail_electric rail_fast ship" oneway="0"/>
    <type id="highway.secondary_link" priority="6" numLanes="1" speed="22.22" disallow="tram rail_urban rail rail_electric rail_fast ship" oneway="0"/>
    <type id="highway.service" priority="1" numLanes="1" speed="5.56" allow="pedestrian delivery bicycle" oneway="0"/>
    <type id="highway.stairs" priority="1" numLanes="1" speed="1.39" allow="pedestrian" oneway="1" width="2.00"/>
    <type id="highway.step" priority="1" numLanes="1" speed="1.39" allow="pedestrian" oneway="1" width="2.00"/>
    <type id="highway.steps" priority="1" numLanes="1" speed="1.39" allow="pedestrian" oneway="1" width="2.00"/>
    <type id="highway.tertiary" priority="10" numLanes="1" speed="22.22" disallow="tram rail_urban rail rail_electric rail_fast ship" oneway="0"/>
    <type id="highway.tertiary_link" priority="5" numLanes="1" speed="22.22" disallow="tram rail_urban rail rail_electric rail_fast ship" oneway="0"/>
    <type id="highway.track" priority="1" numLanes="1" speed="5.56" allow="pedestrian motorcycle moped bicycle" oneway="0"/>
    <type id="highway.trunk" priority="13" numLanes="2" speed="27.78" disallow="pedestrian bicycle tram rail_urban rail rail_electric rail_fast ship" oneway="0"/>
    <type id="highway.trunk_link" priority="8" numLanes="1" speed="22.22" disallow="pedestrian bicycle tram rail_urban rail rail_electric rail_fast ship" oneway="0"/>
    <type id="highway.unclassified" priority="4" numLanes="1" speed="13.89" disallow="tram rail_urban rail rail_electric rail_fast ship" oneway="0"/>
    <type id="highway.unsurfaced" priority="1" numLanes="1" speed="8.33" disallow="tram rail_urban rail rail_electric rail_fast ship" oneway="0"/>
    <type id="railway.highspeed" priority="21" numLanes="1" speed="69.44" allow="rail_fast" oneway="1"/>
    <type id="railway.light_rail" priority="19" numLanes="1" speed="27.78" allow="rail_urban" oneway="1"/>
    <type id="railway.preserved" priority="16" numLanes="1" speed="27.78" allow="rail" oneway="1"/>
    <type id="railway.rail" priority="20" numLanes="1" speed="44.44" allow="rail" oneway="1"/>
    <type id="railway.subway" priority="18" numLanes="1" speed="27.78" allow="rail_urban" oneway="1"/>
    <type id="railway.tram" priority="17" numLanes="1" speed="13.89" allow="tram" oneway="1"/>

    <edge id=":1241531426_0" function="internal">
        <lane id=":1241531426_0_0" index="0" allow="private emergency authority army vip passenger hov taxi bus coach delivery truck trailer motorcycle evehicle custom1 custom2" speed="13.89" length="8.15" shape="465.29,501.14 464.64,498.85 463.89,497.36 463.12,495.88 462.41,493.60"/>
        <lane id=":1241531426_0_1" index="1" allow="private emergency authority army vip passenger hov taxi bus coach delivery truck trailer motorcycle evehicle custom1 custom2" speed="13.89" length="8.15" shape="468.43,500.54 467.78,498.22 467.02,496.72 466.25,495.23 465.54,492.92"/>
    </edge>
    <edge id=":1241531426_2" function="internal">
        <lane id=":1241531426_2_0" index="0" disallow="tram rail_urban rail rail_electric rail_fast ship" speed="13.89" length="7.74" shape="471.69,499.34 470.71,497.26 469.93,495.87 469.28,494.44 468.67,492.24"/>
    </edge>
    <edge id=":1538250928_0" function="internal">
        <lane id=":1538250928_0_0" index="0" allow="bus" speed="3.65" length="4.67" shape="590.42,193.37 591.81,192.97 592.67,193.18 593.03,194.00 592.86,195.43"/>
    </edge>
    <edge id=":1738410978_0" function="internal">
        <lane id=":1738410978_0_0" index="0" disallow="tram rail_urban rail rail_electric rail_fast ship" speed="3.65" length="4.67" shape="224.69,148.95 224.30,147.57 224.52,146.70 225.34,146.35 226.77,146.53"/>
    </edge>
    <edge id=":1738410982_0" function="internal">
        <lane id=":1738410982_0_0" index="0" disallow="tram rail_urban rail rail_electric rail_fast ship" speed="13.89" length="23.14" shape="363.44,283.72 350.50,264.54"/>
    </edge>
    <edge id=":1738410982_1" function="internal">
        <lane id=":1738410982_1_0" index="0" disallow="tram rail_urban rail rail_electric rail_fast ship" speed="13.89" length="23.59" shape="353.13,262.70 355.03,266.60 356.52,271.93 357.77,278.33 358.92,285.48"/>
        <lane id=":1738410982_1_1" index="1" disallow="tram rail_urban rail rail_electric rail_fast ship" speed="13.89" length="23.59" shape="353.13,262.70 354.53,266.68 354.94,272.17 355.10,278.74 355.75,285.97"/>
    </edge>
    <edge id=":1790572933_0" function="internal">
        <lane id=":1790572933_0_0" index="0" disallow="pedestrian tram rail_urban rail rail_electric rail_fast ship" speed="13.89" length="17.17" shape="411.49,360.00 408.28,355.96 406.11,353.17 404.12,350.25 401.44,345.85"/>
        <lane id=":1790572933_0_1" index="1" disallow="pedestrian tram rail_urban rail rail_electric rail_fast ship" speed="13.89" length="17.17" shape="414.00,358.02 410.87,354.08 408.75,351.36 406.81,348.51 404.19,344.22"/>
    </edge>
    <edge id=":1790572933_2" function="internal">
        <lane id=":1790572933_2_0" index="0" disallow="pedestrian bicycle tram rail_urban rail rail_electric rail_fast ship" speed="5.16" length="5.98" shape="395.71,347.58 401.44,345.85"/>
    </edge>
    <edge id=":1790572933_3" function="internal">
        <lane id=":1790572933_3_0" index="0" disallow="pedestrian bicycle tram rail_urban rail rail_electric rail_fast ship" speed="16.67" length="18.34" shape="396.85,350.57 413.73,342.86"/>
        <lane id=":1790572933_3_1" index="1" disallow="pedestrian bicycle tram rail_urban rail rail_electric rail_fast ship" speed="16.67" length="18.34" shape="398.00,353.56 414.74,345.90"/>
        <lane id=":1790572933_3_2" index="2" disallow="pedestrian bicycle tram rail_urban rail rail_electric rail_fast ship" speed="16.67" length="18.34" shape="399.14,356.55 415.75,348.93"/>
        <lane id=":1790572933_3_3" index="3" disallow="pedestrian bicycle tram rail_urban rail rail_electric rail_fast ship" speed="16.67" length="18.34" shape="400.28,359.53 416.76,351.97"/>
    </edge>
    <edge id=":1790582699_0" function="internal">
        <lane id=":1790582699_0_0" index="0" disallow="pedestrian bicycle tram rail_urban rail rail_electric rail_fast ship" speed="16.67" length="8.16" shape="526.45,283.46 524.83,285.47 524.26,287.33 523.63,289.12 521.85,290.92"/>
        <lane id=":1790582699_0_1" index="1" disallow="pedestrian bicycle tram rail_urban rail rail_electric rail_fast ship" speed="16.67" length="8.16" shape="524.38,281.01 522.84,282.96 522.33,284.78 521.77,286.52 520.07,288.26"/>
        <lane id=":1790582699_0_2" index="2" disallow="pedestrian bicycle tram rail_urban rail rail_electric rail_fast ship" speed="16.67" length="8.16" shape="522.31,278.57 520.86,280.45 520.41,282.22 519.90,283.92 518.29,285.60"/>
        <lane id=":1790582699_0_3" index="3" disallow="pedestrian bicycle tram rail_urban rail rail_electric rail_fast ship" speed="16.67" length="8.16" shape="520.25,276.13 518.87,277.95 518.48,279.66 518.04,281.31 516.51,282.94"/>
        <lane id=":1790582699_0_4" index="4" disallow="pedestrian bicycle tram rail_urban rail rail_electric rail_fast ship" speed="16.67" length="8.16" shape="520.25,276.13 518.68,277.45 517.58,278.32 516.44,279.13 514.73,280.28"/>
    </edge>
    <edge id=":1790582699_5" function="internal">
        <lane id=":1790582699_5_0" index="0" allow="bus bicycle" speed="16.67" length="6.55" shape="512.96,277.61 514.57,276.53 515.65,275.76 516.69,274.93 518.18,273.68"/>
    </edge>
    <edge id=":2122058333_0" function="internal">
        <lane id=":2122058333_0_0" index="0" disallow="tram rail_urban rail rail_electric rail_fast ship" speed="3.65" length="4.67" shape="292.03,571.96 292.48,573.33 292.29,574.20 291.48,574.58 290.05,574.46"/>
    </edge>
    <edge id=":2122058352_0" function="internal">
        <lane id=":2122058352_0_0" index="0" disallow="tram rail_urban rail rail_electric rail_fast ship" speed="6.56" length="8.90" shape="300.03,465.27 298.61,463.31 296.89,462.25 294.87,462.07 292.54,462.79"/>
    </edge>
    <edge id=":2122058352_1" function="internal">
        <lane id=":2122058352_1_0" index="0" disallow="tram rail_urban rail rail_electric rail_fast ship" speed="13.89" length="14.08" shape="300.03,465.27 293.93,452.58"/>
    </edge>
    <edge id=":2122058352_2" function="internal">
        <lane id=":2122058352_2_0" index="0" disallow="tram rail_urban rail rail_electric rail_fast ship" speed="13.89" length="13.86" shape="296.86,451.29 302.86,463.78"/>
    </edge>
    <edge id=":2122058352_3" function="internal">
        <lane id=":2122058352_3_0" index="0" disallow="tram rail_urban rail rail_electric rail_fast ship" speed="8.01" length="3.80" shape="296.86,451.29 297.88,454.96"/>
    </edge>
    <edge id=":2122058352_6" function="internal">
        <lane id=":2122058352_6_0" index="0" disallow="tram rail_urban rail rail_electric rail_fast ship" speed="8.01" length="10.12" shape="297.88,454.96 297.50,458.09 295.72,460.71 292.54,462.79"/>
    </edge>
    <edge id=":2122058352_4" function="internal">
        <lane id=":2122058352_4_0" index="0" disallow="tram rail_urban rail rail_electric rail_fast ship" speed="6.51" length="8.86" shape="291.18,459.90 293.20,458.57 294.34,456.91 294.58,454.91 293.93,452.58"/>
    </edge>
    <edge id=":2122058352_5" function="internal">
        <lane id=":2122058352_5_0" index="0" disallow="tram rail_urban rail rail_electric rail_fast ship" speed="8.05" length="13.90" shape="291.18,459.90 294.81,458.78 297.97,459.05 300.65,460.72 302.86,463.78"/>
    </edge>
    <edge id=":2122058353_0" function="internal">
        <lane id=":2122058353_0_0" index="0" disallow="tram rail_urban rail rail_electric rail_fast ship" speed="3.65" length="4.67" shape="344.97,546.65 344.32,547.94 343.57,548.43 342.73,548.13 341.79,547.03"/>
    </edge>
    <edge id=":2122058360_0" function="internal">
        <lane id=":2122058360_0_0" index="0" allow="bus bicycle" speed="6.27" length="8.35" shape="273.16,406.84 271.83,404.68 270.29,403.42 268.54,403.06 266.58,403.59"/>
    </edge>
    <edge id=":2122058360_1" function="internal">
        <lane id=":2122058360_1_0" index="0" disallow="pedestrian bicycle tram rail_urban rail rail_electric rail_fast ship" speed="9.23" length="20.00" shape="273.16,406.84 270.82,400.50 270.39,395.46 271.86,391.72 275.25,389.29"/>
        <lane id=":2122058360_1_1" index="1" disallow="pedestrian bicycle tram rail_urban rail rail_electric rail_fast ship" speed="8.58" length="17.14" shape="273.16,406.84 271.41,401.77 271.37,397.65 273.06,394.48 276.47,392.25"/>
        <lane id=":2122058360_1_2" index="2" disallow="pedestrian bicycle tram rail_urban rail rail_electric rail_fast ship" speed="7.91" length="14.39" shape="273.16,406.84 272.00,403.04 272.36,399.84 274.26,397.23 277.68,395.21"/>
    </edge>
    <edge id=":2122058360_4" function="internal">
        <lane id=":2122058360_4_0" index="0" allow="bus bicycle" speed="6.40" length="9.04" shape="278.89,398.18 276.74,399.44 275.55,401.08 275.33,403.09 276.06,405.47"/>
    </edge>
    <edge id=":2122058360_5" function="internal">
        <lane id=":2122058360_5_0" index="0" allow="bus bicycle" speed="16.67" length="13.45" shape="278.89,398.18 266.58,403.59"/>
    </edge>
    <edge id=":2122058360_6" function="internal">
        <lane id=":2122058360_6_0" index="0" allow="bus" speed="3.65" length="1.44" shape="278.89,398.18 277.48,397.89"/>
    </edge>
    <edge id=":2122058360_14" function="internal">
        <lane id=":2122058360_14_0" index="0" allow="bus" speed="3.65" length="3.23" shape="277.48,397.89 276.81,397.30 276.87,396.41 277.68,395.21"/>
    </edge>
    <edge id=":2122058360_7" function="internal">
        <lane id=":2122058360_7_0" index="0" disallow="pedestrian bicycle tram rail_urban rail rail_electric rail_fast ship" speed="16.67" length="15.04" shape="262.45,394.92 266.02,392.13 267.57,389.00 269.16,385.95 272.82,383.37"/>
        <lane id=":2122058360_7_1" index="1" disallow="pedestrian bicycle tram rail_urban rail rail_electric rail_fast ship" speed="16.67" length="15.04" shape="263.83,397.81 267.35,395.04 268.87,391.93 270.42,388.89 274.04,386.33"/>
        <lane id=":2122058360_7_2" index="2" disallow="pedestrian bicycle tram rail_urban rail rail_electric rail_fast ship" speed="16.67" length="15.04" shape="265.20,400.70 268.68,397.95 270.16,394.85 271.68,391.83 275.25,389.29"/>
        <lane id=":2122058360_7_3" index="3" disallow="pedestrian bicycle tram rail_urban rail rail_electric rail_fast ship" speed="16.67" length="15.04" shape="265.20,400.70 268.73,398.48 270.77,396.34 272.85,394.27 276.47,392.25"/>
        <lane id=":2122058360_7_4" index="4" disallow="pedestrian bicycle tram rail_urban rail rail_electric rail_fast ship" speed="16.67" length="15.04" shape="265.20,400.70 277.68,395.21"/>
    </edge>
    <edge id=":2122058360_12" function="internal">
        <lane id=":2122058360_12_0" index="0" disallow="pedestrian bicycle tram rail_urban rail rail_electric rail_fast ship" speed="7.81" length="3.75" shape="265.20,400.70 268.52,399.75 268.81,399.79"/>
    </edge>
    <edge id=":2122058360_13" function="internal">
        <lane id=":2122058360_13_0" index="0" allow="bus" speed="3.65" length="1.44" shape="265.20,400.70 266.63,400.91"/>
    </edge>
    <edge id=":2122058360_15" function="internal">
        <lane id=":2122058360_15_0" index="0" disallow="pedestrian bicycle tram rail_urban rail rail_electric rail_fast ship" speed="7.81" length="9.76" shape="268.81,399.79 271.43,400.22 273.94,402.13 276.06,405.47"/>
    </edge>
    <edge id=":2122058360_16" function="internal">
        <lane id=":2122058360_16_0" index="0" allow="bus" speed="3.65" length="3.23" shape="266.63,400.91 267.33,401.46 267.32,402.35 266.58,403.59"/>
    </edge>
    <edge id=":2122058371_0" function="internal">
        <lane id=":2122058371_0_0" index="0" allow="bus" speed="3.65" length="4.67" shape="159.68,454.47 158.25,454.27 157.55,453.72 157.56,452.82 158.30,451.59"/>
    </edge>
    <edge id=":2373594947_0" function="internal">
        <lane id=":2373594947_0_0" index="0" disallow="pedestrian bicycle tram rail_urban rail rail_electric rail_fast ship" speed="16.67" length="14.36" shape="301.69,375.41 288.62,381.32"/>
        <lane id=":2373594947_0_1" index="1" disallow="pedestrian bicycle tram rail_urban rail rail_electric rail_fast ship" speed="16.67" length="14.36" shape="300.38,372.49 287.30,378.41"/>
        <lane id=":2373594947_0_2" index="2" disallow="pedestrian bicycle tram rail_urban rail rail_electric rail_fast ship" speed="16.67" length="14.36" shape="299.07,369.57 285.97,375.50"/>
    </edge>
    <edge id=":2373594947_3" function="internal">
        <lane id=":2373594947_3_0" index="0" disallow="pedestrian bicycle tram rail_urban rail rail_electric rail_fast ship" speed="8.21" length="3.95" shape="299.07,369.57 295.42,370.60 295.27,370.59"/>
    </edge>
    <edge id=":2373594947_4" function="internal">
        <lane id=":2373594947_4_0" index="0" allow="bus" speed="3.65" length="1.44" shape="299.07,369.57 297.65,369.33"/>
    </edge>
    <edge id=":2373594947_11" function="internal">
        <lane id=":2373594947_11_0" index="0" disallow="pedestrian bicycle tram rail_urban rail rail_electric rail_fast ship" speed="8.21" length="10.33" shape="295.27,370.59 292.22,370.22 289.47,368.41 287.17,365.19"/>
    </edge>
    <edge id=":2373594947_12" function="internal">
        <lane id=":2373594947_12_0" index="0" allow="bus" speed="3.65" length="3.23" shape="297.65,369.33 296.96,368.77 297.00,367.87 297.76,366.65"/>
    </edge>
    <edge id=":2373594947_5" function="internal">
        <lane id=":2373594947_5_0" index="0" allow="bus bicycle" speed="6.76" length="9.35" shape="290.00,363.70 291.51,365.84 293.31,367.04 295.40,367.31 297.76,366.65"/>
    </edge>
    <edge id=":2373594947_6" function="internal">
        <lane id=":2373594947_6_0" index="0" disallow="pedestrian bicycle tram rail_urban rail rail_electric rail_fast ship" speed="8.57" length="17.18" shape="290.00,363.70 291.98,368.69 292.19,372.81 290.63,376.05 287.30,378.41"/>
        <lane id=":2373594947_6_1" index="1" disallow="pedestrian bicycle tram rail_urban rail rail_electric rail_fast ship" speed="7.90" length="14.42" shape="290.00,363.70 291.34,367.45 291.11,370.67 289.32,373.35 285.97,375.50"/>
    </edge>
    <edge id=":2373594947_8" function="internal">
        <lane id=":2373594947_8_0" index="0" allow="bus bicycle" speed="6.38" length="9.04" shape="284.64,372.59 286.74,371.24 287.86,369.56 288.01,367.54 287.17,365.19"/>
    </edge>
    <edge id=":2373594947_9" function="internal">
        <lane id=":2373594947_9_0" index="0" allow="bus bicycle" speed="16.67" length="14.40" shape="284.64,372.59 297.76,366.65"/>
    </edge>
    <edge id=":2373594947_10" function="internal">
        <lane id=":2373594947_10_0" index="0" allow="bus" speed="3.65" length="1.44" shape="284.64,372.59 286.07,372.82"/>
    </edge>
    <edge id=":2373594947_13" function="internal">
        <lane id=":2373594947_13_0" index="0" allow="bus" speed="3.65" length="3.23" shape="286.07,372.82 286.76,373.38 286.73,374.28 285.97,375.50"/>
    </edge>
    <edge id=":2374434190_0" function="internal">
        <lane id=":2374434190_0_0" index="0" disallow="tram rail_urban rail rail_electric rail_fast ship" speed="3.65" length="4.67" shape="207.76,246.76 209.13,246.30 210.00,246.48 210.39,247.28 210.28,248.72"/>
    </edge>
    <edge id=":241916816_0" function="internal">
        <lane id=":241916816_0_0" index="0" disallow="pedestrian bicycle tram rail_urban rail rail_electric rail_fast ship" speed="16.67" length="7.84" shape="436.54,335.10 428.93,337.47"/>
        <lane id=":241916816_0_1" index="1" disallow="pedestrian bicycle tram rail_urban rail rail_electric rail_fast ship" speed="16.67" length="7.84" shape="435.57,332.05 428.03,334.40"/>
        <lane id=":241916816_0_2" index="2" disallow="pedestrian bicycle tram rail_urban rail rail_electric rail_fast ship" speed="16.67" length="7.84" shape="434.61,328.99 427.13,331.33"/>
        <lane id=":241916816_0_3" index="3" disallow="pedestrian bicycle tram rail_urban rail rail_electric rail_fast ship" speed="16.67" length="7.84" shape="433.65,325.94 426.23,328.26"/>
        <lane id=":241916816_0_4" index="4" disallow="pedestrian bicycle tram rail_urban rail rail_electric rail_fast ship" speed="16.67" length="7.84" shape="432.68,322.89 425.32,325.19"/>
    </edge>
    <edge id=":241916816_5" function="internal">
        <lane id=":241916816_5_0" index="0" disallow="pedestrian bicycle tram rail_urban rail rail_electric rail_fast ship" speed="15.28" length="3.09" shape="432.68,322.89 430.29,323.29 429.64,323.16"/>
    </edge>
    <edge id=":241916816_6" function="internal">
        <lane id=":241916816_6_0" index="0" allow="bus" speed="3.65" length="1.44" shape="432.68,322.89 431.30,322.49"/>
    </edge>
    <edge id=":241916816_10" function="internal">
        <lane id=":241916816_10_0" index="0" disallow="pedestrian bicycle tram rail_urban rail rail_electric rail_fast ship" speed="15.28" length="5.43" shape="429.64,323.16 428.60,322.94 426.87,322.33 424.37,321.94"/>
    </edge>
    <edge id=":241916816_11" function="internal">
        <lane id=":241916816_11_0" index="0" allow="bus" speed="3.65" length="3.23" shape="431.30,322.49 430.68,321.85 430.82,320.96 431.72,319.84"/>
    </edge>
    <edge id=":241916816_7" function="internal">
        <lane id=":241916816_7_0" index="0" allow="bus" speed="15.28" length="0.58" shape="424.42,322.12 424.61,322.05 424.67,321.99 424.59,321.96 424.37,321.94"/>
    </edge>
    <edge id=":241916816_8" function="internal">
        <lane id=":241916816_8_0" index="0" allow="bus bicycle" speed="16.67" length="7.64" shape="424.42,322.12 431.72,319.84"/>
    </edge>
    <edge id=":241916816_9" function="internal">
        <lane id=":241916816_9_0" index="0" allow="bus" speed="3.65" length="1.44" shape="424.42,322.12 425.80,322.55"/>
    </edge>
    <edge id=":241916816_12" function="internal">
        <lane id=":241916816_12_0" index="0" allow="bus" speed="3.65" length="3.23" shape="425.80,322.55 426.41,323.20 426.25,324.08 425.32,325.19"/>
    </edge>
    <edge id=":241917141_0" function="internal">
        <lane id=":241917141_0_0" index="0" disallow="pedestrian bicycle tram rail_urban rail rail_electric rail_fast ship" speed="16.67" length="19.61" shape="451.70,330.18 457.13,328.65 460.96,327.92 464.70,326.97 469.88,324.82"/>
        <lane id=":241917141_0_1" index="1" disallow="pedestrian bicycle tram rail_urban rail rail_electric rail_fast ship" speed="16.67" length="19.61" shape="452.71,333.21 458.26,331.65 462.17,330.89 465.98,329.91 471.27,327.70"/>
        <lane id=":241917141_0_2" index="2" disallow="pedestrian bicycle tram rail_urban rail rail_electric rail_fast ship" speed="16.67" length="19.61" shape="453.73,336.25 459.39,334.65 463.37,333.85 467.27,332.84 472.66,330.58"/>
        <lane id=":241917141_0_3" index="3" disallow="pedestrian bicycle tram rail_urban rail rail_electric rail_fast ship" speed="16.67" length="19.61" shape="454.74,339.28 460.52,337.64 464.58,336.82 468.55,335.77 474.05,333.46"/>
    </edge>
    <edge id=":241917141_4" function="internal">
        <lane id=":241917141_4_0" index="0" disallow="pedestrian bicycle tram rail_urban rail rail_electric rail_fast ship" speed="15.28" length="19.72" shape="457.30,343.48 461.45,339.12 464.27,336.04 467.46,333.45 472.66,330.58"/>
        <lane id=":241917141_4_1" index="1" disallow="pedestrian bicycle tram rail_urban rail rail_electric rail_fast ship" speed="15.28" length="19.72" shape="459.54,345.76 463.47,341.62 466.13,338.67 469.13,336.20 474.05,333.46"/>
    </edge>
    <edge id=":3551122363_0" function="internal">
        <lane id=":3551122363_0_0" index="0" allow="bus" speed="3.65" length="4.67" shape="192.58,417.87 191.16,417.63 190.46,417.07 190.50,416.18 191.26,414.95"/>
    </edge>
    <edge id=":4602700745_0" function="internal">
        <lane id=":4602700745_0_0" index="0" disallow="pedestrian tram rail_urban rail rail_electric rail_fast ship" speed="13.89" length="14.96" shape="363.91,312.62 364.97,316.87 366.06,319.68 367.26,322.46 368.66,326.63"/>
        <lane id=":4602700745_0_1" index="1" disallow="pedestrian tram rail_urban rail rail_electric rail_fast ship" speed="13.89" length="14.96" shape="360.77,313.23 361.84,317.56 362.94,320.42 364.16,323.26 365.58,327.51"/>
    </edge>
    <edge id=":4602700745_2" function="internal">
        <lane id=":4602700745_2_0" index="0" disallow="pedestrian bicycle tram rail_urban rail rail_electric rail_fast ship" speed="13.89" length="15.11" shape="360.77,313.23 361.58,317.97 361.82,321.66 361.35,324.83 360.05,327.97"/>
    </edge>
    <edge id=":4602700747_0" function="internal">
        <lane id=":4602700747_0_0" index="0" disallow="pedestrian tram rail_urban rail rail_electric rail_fast ship" speed="13.89" length="15.27" shape="385.49,319.00 377.78,305.90"/>
        <lane id=":4602700747_0_1" index="1" disallow="pedestrian tram rail_urban rail rail_electric rail_fast ship" speed="13.89" length="15.27" shape="388.25,317.38 380.48,304.18"/>
    </edge>
    <edge id=":4602700747_2" function="internal">
        <lane id=":4602700747_2_0" index="0" disallow="pedestrian bicycle tram rail_urban rail rail_electric rail_fast ship" speed="13.89" length="15.24" shape="391.97,313.83 388.91,312.16 386.11,310.45 383.36,308.01 380.48,304.18"/>
    </edge>
    <edge id=":5218666537_0" function="internal">
        <lane id=":5218666537_0_0" index="0" disallow="pedestrian tram rail_urban rail rail_electric rail_fast ship" speed="13.89" length="0.81" shape="411.09,359.50 411.61,360.16"/>
        <lane id=":5218666537_0_1" index="1" disallow="pedestrian tram rail_urban rail rail_electric rail_fast ship" speed="13.89" length="0.81" shape="413.64,357.57 414.13,358.18"/>
    </edge>
    <edge id=":5243098507_0" function="internal">
        <lane id=":5243098507_0_0" index="0" disallow="tram rail_urban rail rail_electric rail_fast ship" speed="13.89" length="8.82" shape="262.43,186.30 260.91,184.30 260.48,182.46 260.06,180.61 258.55,178.59"/>
    </edge>
    <edge id=":5243098507_1" function="internal">
        <lane id=":5243098507_1_0" index="0" disallow="tram rail_urban rail rail_electric rail_fast ship" speed="13.89" length="7.97" shape="260.69,176.21 266.65,181.49"/>
    </edge>
    <edge id=":571917026_0" function="internal">
        <lane id=":571917026_0_0" index="0" allow="private emergency authority army vip passenger hov taxi bus coach delivery truck trailer motorcycle evehicle custom1 custom2" speed="13.89" length="15.05" shape="373.19,400.40 372.97,404.71 372.82,407.70 373.13,410.62 374.28,414.72"/>
        <lane id=":571917026_0_1" index="1" allow="private emergency authority army vip passenger hov taxi bus coach delivery truck trailer motorcycle evehicle custom1 custom2" speed="13.89" length="15.05" shape="369.99,400.32 369.76,404.96 369.63,408.17 370.00,411.31 371.25,415.73"/>
    </edge>
    <edge id=":571917026_2" function="internal">
        <lane id=":571917026_2_0" index="0" allow="private emergency authority army vip passenger hov taxi bus coach delivery truck trailer motorcycle evehicle custom1 custom2" speed="13.89" length="15.28" shape="364.59,402.08 366.58,404.87 368.16,407.69 369.62,411.11 371.25,415.73"/>
    </edge>
    <edge id=":571917034_0" function="internal">
        <lane id=":571917034_0_0" index="0" allow="bus" speed="5.57" length="11.67" shape="331.91,378.38 328.18,379.92 327.01,381.25 328.42,382.36 332.39,383.25"/>
    </edge>
    <edge id=":571917034_1" function="internal">
        <lane id=":571917034_1_0" index="0" allow="bus bicycle" speed="16.67" length="15.52" shape="331.91,378.38 317.17,383.24"/>
    </edge>
    <edge id=":571917034_2" function="internal">
        <lane id=":571917034_2_0" index="0" allow="bus" speed="3.65" length="1.44" shape="331.91,378.38 330.52,377.99"/>
    </edge>
    <edge id=":571917034_10" function="internal">
        <lane id=":571917034_10_0" index="0" allow="bus" speed="3.65" length="3.23" shape="330.52,377.99 329.89,377.36 330.02,376.47 330.91,375.34"/>
    </edge>