<?xml version="1.0" encoding="UTF-8"?>

<!-- generated on 2023-07-18 14:09:05 by Eclipse SUMO netconvert Version 1.17.0
<configuration xmlns:xsi="http://www.w3.org/2001/XMLSchema-instance" xsi:noNamespaceSchemaLocation="http://sumo.dlr.de/xsd/netconvertConfiguration.xsd">

    <input>
        <sumo-net-file value="osm.net.xml.gz"/>
    </input>

    <output>
        <output-file value="osm.net.xml"/>
        <output.street-names value="true"/>
    </output>

    <processing>
        <geometry.min-radius.fix.railways value="false"/>
        <geometry.max-grade.fix value="false"/>
        <offset.disable-normalization value="true"/>
        <lefthand value="1"/>
    </processing>

    <junctions>
        <no-turnarounds value="true"/>
        <junctions.corner-detail value="5"/>
        <junctions.limit-turn-speed value="5.50"/>
        <rectangular-lane-cut value="0"/>
    </junctions>

    <pedestrian>
        <walkingareas value="0"/>
    </pedestrian>

</configuration>
-->

<net version="1.16" junctionCornerDetail="5" lefthand="true" limitTurnSpeed="5.50" xmlns:xsi="http://www.w3.org/2001/XMLSchema-instance" xsi:noNamespaceSchemaLocation="http://sumo.dlr.de/xsd/net_file.xsd">

    <location netOffset="-384001.32,-148705.73" convBoundary="0.00,0.00,1241.19,1025.16" origBoundary="103.957320,1.345165,103.968477,1.354437" projParameter="+proj=utm +zone=48 +ellps=WGS84 +datum=WGS84 +units=m +no_defs"/>

    <type id="highway.bridleway" priority="1" numLanes="1" speed="2.78" allow="pedestrian" oneway="1" width="2.00"/>
    <type id="highway.bus_guideway" priority="1" numLanes="1" speed="27.78" allow="bus" oneway="1"/>
    <type id="highway.cycleway" priority="1" numLanes="1" speed="5.56" allow="bicycle" oneway="0" width="1.00"/>
    <type id="highway.footway" priority="1" numLanes="1" speed="2.78" allow="pedestrian" oneway="1" width="2.00"/>
    <type id="highway.ford" priority="1" numLanes="1" speed="2.78" allow="army" oneway="0"/>
    <type id="highway.living_street" priority="2" numLanes="1" speed="2.78" disallow="tram rail_urban rail rail_electric rail_fast ship" oneway="0"/>
    <type id="highway.motorway" priority="14" numLanes="2" speed="39.44" allow="private emergency authority army vip passenger hov taxi bus coach delivery truck trailer motorcycle evehicle custom1 custom2" oneway="1"/>
    <type id="highway.motorway_link" priority="9" numLanes="1" speed="22.22" allow="private emergency authority army vip passenger hov taxi bus coach delivery truck trailer motorcycle evehicle custom1 custom2" oneway="1"/>
    <type id="highway.path" priority="1" numLanes="1" speed="5.56" allow="pedestrian bicycle" oneway="0" width="2.00"/>
    <type id="highway.pedestrian" priority="1" numLanes="1" speed="2.78" allow="pedestrian" oneway="1" width="2.00"/>
    <type id="highway.primary" priority="12" numLanes="2" speed="27.78" disallow="tram rail_urban rail rail_electric rail_fast ship" oneway="0"/>
    <type id="highway.primary_link" priority="7" numLanes="1" speed="22.22" disallow="tram rail_urban rail rail_electric rail_fast ship" oneway="0"/>
    <type id="highway.raceway" priority="15" numLanes="2" speed="83.33" allow="vip" oneway="0"/>
    <type id="highway.residential" priority="3" numLanes="1" speed="13.89" disallow="tram rail_urban rail rail_electric rail_fast ship" oneway="0"/>
    <type id="highway.secondary" priority="11" numLanes="1" speed="27.78" disallow="tram rail_urban rail rail_electric rail_fast ship" oneway="0"/>
    <type id="highway.secondary_link" priority="6" numLanes="1" speed="22.22" disallow="tram rail_urban rail rail_electric rail_fast ship" oneway="0"/>
    <type id="highway.service" priority="1" numLanes="1" speed="5.56" allow="pedestrian delivery bicycle" oneway="0"/>
    <type id="highway.stairs" priority="1" numLanes="1" speed="1.39" allow="pedestrian" oneway="1" width="2.00"/>
    <type id="highway.step" priority="1" numLanes="1" speed="1.39" allow="pedestrian" oneway="1" width="2.00"/>
    <type id="highway.steps" priority="1" numLanes="1" speed="1.39" allow="pedestrian" oneway="1" width="2.00"/>
    <type id="highway.tertiary" priority="10" numLanes="1" speed="22.22" disallow="tram rail_urban rail rail_electric rail_fast ship" oneway="0"/>
    <type id="highway.tertiary_link" priority="5" numLanes="1" speed="22.22" disallow="tram rail_urban rail rail_electric rail_fast ship" oneway="0"/>
    <type id="highway.track" priority="1" numLanes="1" speed="5.56" allow="pedestrian motorcycle moped bicycle" oneway="0"/>
    <type id="highway.trunk" priority="13" numLanes="2" speed="27.78" disallow="pedestrian bicycle tram rail_urban rail rail_electric rail_fast ship" oneway="0"/>
    <type id="highway.trunk_link" priority="8" numLanes="1" speed="22.22" disallow="pedestrian bicycle tram rail_urban rail rail_electric rail_fast ship" oneway="0"/>
    <type id="highway.unclassified" priority="4" numLanes="1" speed="13.89" disallow="tram rail_urban rail rail_electric rail_fast ship" oneway="0"/>
    <type id="highway.unsurfaced" priority="1" numLanes="1" speed="8.33" disallow="tram rail_urban rail rail_electric rail_fast ship" oneway="0"/>
    <type id="railway.highspeed" priority="21" numLanes="1" speed="69.44" allow="rail_fast" oneway="1"/>
    <type id="railway.light_rail" priority="19" numLanes="1" speed="27.78" allow="rail_urban" oneway="1"/>
    <type id="railway.preserved" priority="16" numLanes="1" speed="27.78" allow="rail" oneway="1"/>
    <type id="railway.rail" priority="20" numLanes="1" speed="44.44" allow="rail" oneway="1"/>
    <type id="railway.subway" priority="18" numLanes="1" speed="27.78" allow="rail_urban" oneway="1"/>
    <type id="railway.tram" priority="17" numLanes="1" speed="13.89" allow="tram" oneway="1"/>

    <edge id=":133662185_0" function="internal">
        <lane id=":133662185_0_0" index="0" allow="private emergency authority army vip passenger hov taxi bus coach delivery truck trailer motorcycle evehicle custom1 custom2" speed="25.00" length="8.68" shape="924.40,439.00 926.56,437.35 929.03,437.54 931.55,437.77 933.88,436.23"/>
        <lane id=":133662185_0_1" index="1" allow="private emergency authority army vip passenger hov taxi bus coach delivery truck trailer motorcycle evehicle custom1 custom2" speed="25.00" length="8.68" shape="924.40,439.00 926.04,437.26 927.74,436.63 929.49,436.03 931.27,434.38"/>
        <lane id=":133662185_0_2" index="2" allow="private emergency authority army vip passenger hov taxi bus coach delivery truck trailer motorcycle evehicle custom1 custom2" speed="25.00" length="8.68" shape="924.40,439.00 928.66,432.52"/>
        <lane id=":133662185_0_3" index="3" allow="private emergency authority army vip passenger hov taxi bus coach delivery truck trailer motorcycle evehicle custom1 custom2" speed="25.00" length="8.68" shape="921.67,437.33 926.06,430.67"/>
    </edge>
    <edge id=":139694542_0" function="internal">
        <lane id=":139694542_0_0" index="0" allow="private emergency authority army vip passenger hov taxi bus coach delivery truck trailer motorcycle evehicle custom1 custom2" speed="19.45" length="3.91" shape="418.38,628.11 419.52,627.92 420.29,627.72 421.03,627.44 422.11,627.02"/>
        <lane id=":139694542_0_1" index="1" allow="private emergency authority army vip passenger hov taxi bus coach delivery truck trailer motorcycle evehicle custom1 custom2" speed="19.45" length="3.78" shape="417.93,624.94 419.03,624.75 419.76,624.53 420.48,624.24 421.52,623.83"/>
    </edge>
    <edge id=":139694542_2" function="internal">
        <lane id=":139694542_2_0" index="0" allow="private emergency authority army vip passenger hov taxi bus coach delivery truck trailer motorcycle evehicle custom1 custom2" speed="25.00" length="3.51" shape="417.47,621.77 420.98,621.17"/>
        <lane id=":139694542_2_1" index="1" allow="private emergency authority army vip passenger hov taxi bus coach delivery truck trailer motorcycle evehicle custom1 custom2" speed="25.00" length="3.51" shape="417.02,618.60 420.43,618.02"/>
    </edge>
    <edge id=":242576651_0" function="internal">
        <lane id=":242576651_0_0" index="0" allow="private emergency authority army vip passenger hov taxi bus coach delivery truck trailer motorcycle evehicle custom1 custom2" speed="15.28" length="6.79" shape="667.58,328.12 672.80,332.46"/>
    </edge>
    <edge id=":242576651_1" function="internal">
        <lane id=":242576651_1_0" index="0" disallow="tram rail_urban rail rail_electric rail_fast ship" speed="16.67" length="6.00" shape="667.58,328.12 668.88,332.45"/>
        <lane id=":242576651_1_1" index="1" disallow="tram rail_urban rail rail_electric rail_fast ship" speed="16.67" length="6.00" shape="670.64,327.18 672.22,332.46"/>
        <lane id=":242576651_1_2" index="2" disallow="tram rail_urban rail rail_electric rail_fast ship" speed="16.67" length="6.00" shape="673.69,326.24 675.53,332.47"/>
        <lane id=":242576651_1_3" index="3" disallow="tram rail_urban rail rail_electric rail_fast ship" speed="16.67" length="6.00" shape="676.75,325.30 678.84,332.48"/>
    </edge>
    <edge id=":242576705_0" function="internal">
        <lane id=":242576705_0_0" index="0" allow="private emergency authority army vip passenger hov taxi bus coach delivery truck trailer motorcycle evehicle custom1 custom2" speed="15.28" length="16.07" shape="694.36,328.53 692.05,325.84 689.80,323.19 687.70,319.86 685.84,315.10"/>
    </edge>
    <edge id=":242576705_1" function="internal">
        <lane id=":242576705_1_0" index="0" disallow="tram rail_urban rail rail_electric rail_fast ship" speed="16.67" length="16.10" shape="690.19,330.65 685.84,315.10"/>
        <lane id=":242576705_1_1" index="1" disallow="tram rail_urban rail rail_electric rail_fast ship" speed="16.67" length="16.10" shape="687.11,331.52 682.78,316.01"/>
        <lane id=":242576705_1_2" index="2" disallow="tram rail_urban rail rail_electric rail_fast ship" speed="16.67" length="16.10" shape="684.03,332.39 679.71,316.93"/>
    </edge>
    <edge id=":242585523_0" function="internal">
        <lane id=":242585523_0_0" index="0" allow="private emergency authority army vip passenger hov taxi bus coach delivery truck trailer motorcycle evehicle custom1 custom2" speed="7.61" length="5.74" shape="744.67,642.08 744.59,643.34 744.18,644.61 743.44,645.88 742.36,647.15"/>
    </edge>
    <edge id=":242585523_1" function="internal">
        <lane id=":242585523_1_0" index="0" disallow="tram rail_urban rail rail_electric rail_fast ship" speed="16.67" length="7.21" shape="747.86,641.84 747.73,643.91 747.20,645.29 746.64,646.68 746.41,648.75"/>
        <lane id=":242585523_1_1" index="1" disallow="tram rail_urban rail rail_electric rail_fast ship" speed="16.67" length="7.21" shape="751.05,641.60 750.93,643.72 750.40,645.14 749.84,646.56 749.61,648.68"/>
    </edge>
    <edge id=":242585549_0" function="internal">
        <lane id=":242585549_0_0" index="0" disallow="tram rail_urban rail rail_electric rail_fast ship" speed="16.67" length="8.21" shape="746.85,739.68 746.60,742.05 746.04,743.64 745.48,745.23 745.20,747.61"/>
        <lane id=":242585549_0_1" index="1" disallow="tram rail_urban rail rail_electric rail_fast ship" speed="16.67" length="8.21" shape="750.05,739.67 749.80,742.06 749.24,743.66 748.68,745.26 748.40,747.65"/>
        <lane id=":242585549_0_2" index="2" disallow="tram rail_urban rail rail_electric rail_fast ship" speed="16.67" length="8.21" shape="753.25,739.67 753.00,742.07 752.44,743.68 751.88,745.28 751.60,747.69"/>
        <lane id=":242585549_0_3" index="3" disallow="tram rail_urban rail rail_electric rail_fast ship" speed="16.67" length="8.21" shape="753.25,739.67 753.50,742.08 754.04,743.70 754.58,745.31 754.80,747.72"/>
    </edge>
    <edge id=":242585754_0" function="internal">
        <lane id=":242585754_0_0" index="0" disallow="tram rail_urban rail rail_electric rail_fast ship" speed="16.67" length="46.16" shape="773.99,600.89 760.85,556.60"/>
        <lane id=":242585754_0_1" index="1" disallow="tram rail_urban rail rail_electric rail_fast ship" speed="16.67" length="46.16" shape="770.93,601.85 757.80,557.58"/>
        <lane id=":242585754_0_2" index="2" disallow="tram rail_urban rail rail_electric rail_fast ship" speed="16.67" length="46.16" shape="767.87,602.81 754.76,558.56"/>
        <lane id=":242585754_0_3" index="3" disallow="tram rail_urban rail rail_electric rail_fast ship" speed="16.67" length="46.16" shape="764.81,603.77 751.71,559.55"/>
    </edge>
    <edge id=":242585754_4" function="internal">
        <lane id=":242585754_4_0" index="0" allow="private emergency authority army vip passenger hov taxi bus coach delivery truck trailer motorcycle evehicle custom1 custom2" speed="15.28" length="46.23" shape="761.24,604.53 760.56,595.83 759.83,584.96 758.18,572.38 754.76,558.56"/>
        <lane id=":242585754_4_1" index="1" allow="private emergency authority army vip passenger hov taxi bus coach delivery truck trailer motorcycle evehicle custom1 custom2" speed="15.28" length="46.23" shape="758.06,604.90 757.40,596.31 756.72,585.64 755.12,573.27 751.71,559.55"/>
    </edge>
    <edge id=":242585764_0" function="internal">
        <lane id=":242585764_0_0" index="0" allow="private emergency authority army vip passenger hov taxi bus coach delivery truck trailer motorcycle evehicle custom1 custom2" speed="15.28" length="16.52" shape="728.24,455.61 726.91,450.46 726.41,446.39 726.27,442.85 726.04,439.31"/>
    </edge>
    <edge id=":242585764_1" function="internal">
        <lane id=":242585764_1_0" index="0" disallow="tram rail_urban rail rail_electric rail_fast ship" speed="16.67" length="16.95" shape="725.19,456.60 724.04,451.76 723.84,448.32 723.69,444.86 722.67,439.99"/>
        <lane id=":242585764_1_1" index="1" disallow="tram rail_urban rail rail_electric rail_fast ship" speed="16.67" length="16.95" shape="722.15,457.58 720.99,452.72 720.79,449.26 720.63,445.78 719.60,440.88"/>
        <lane id=":242585764_1_2" index="2" disallow="tram rail_urban rail rail_electric rail_fast ship" speed="16.67" length="16.95" shape="719.10,458.56 717.93,453.68 717.73,450.20 717.56,446.70 716.52,441.78"/>
    </edge>
    <edge id=":242585857_0" function="internal">
        <lane id=":242585857_0_0" index="0" allow="private emergency authority army vip passenger hov taxi bus coach delivery truck trailer motorcycle evehicle custom1 custom2" speed="15.28" length="9.77" shape="786.85,656.86 786.46,653.98 786.14,652.00 786.03,650.02 786.28,647.15"/>
    </edge>
    <edge id=":242585857_1" function="internal">
        <lane id=":242585857_1_0" index="0" disallow="tram rail_urban rail rail_electric rail_fast ship" speed="16.67" length="7.30" shape="783.66,657.18 783.40,654.89 783.14,653.34 782.80,651.80 782.33,649.54"/>
        <lane id=":242585857_1_1" index="1" disallow="tram rail_urban rail rail_electric rail_fast ship" speed="16.67" length="7.30" shape="780.48,657.51 780.22,655.31 779.97,653.82 779.65,652.34 779.19,650.17"/>
        <lane id=":242585857_1_2" index="2" disallow="tram rail_urban rail rail_electric rail_fast ship" speed="16.67" length="7.30" shape="777.30,657.83 777.05,655.73 776.80,654.30 776.49,652.88 776.05,650.81"/>
        <lane id=":242585857_1_3" index="3" disallow="tram rail_urban rail rail_electric rail_fast ship" speed="16.67" length="7.30" shape="774.11,658.16 773.88,656.14 773.64,654.78 773.34,653.42 772.92,651.44"/>
    </edge>
    <edge id=":2674718017_0" function="internal">
        <lane id=":2674718017_0_0" index="0" disallow="tram rail_urban rail rail_electric rail_fast ship" speed="8.86" length="19.65" shape="775.45,838.84 782.22,840.46 787.27,840.36 790.58,838.55 792.17,835.02"/>
        <lane id=":2674718017_0_1" index="1" disallow="tram rail_urban rail rail_electric rail_fast ship" speed="7.58" length="14.08" shape="776.44,835.80 781.62,837.14 785.45,837.38 787.91,836.49 789.01,834.50"/>
        <lane id=":2674718017_0_2" index="2" disallow="tram rail_urban rail rail_electric rail_fast ship" speed="6.75" length="10.91" shape="776.44,835.80 780.27,836.74 783.12,836.75 784.98,835.83 785.85,833.98"/>
        <lane id=":2674718017_0_3" index="3" disallow="tram rail_urban rail rail_electric rail_fast ship" speed="5.82" length="7.82" shape="776.44,835.80 778.92,836.33 780.79,836.12 782.05,835.16 782.69,833.46"/>
    </edge>
    <edge id=":2674754115_0" function="internal">
        <lane id=":2674754115_0_0" index="0" allow="private emergency authority army vip passenger hov taxi bus coach delivery truck trailer motorcycle evehicle custom1 custom2" speed="19.45" length="4.67" shape="977.51,380.35 978.40,379.29 978.96,378.53 979.49,377.74 980.24,376.57"/>
        <lane id=":2674754115_0_1" index="1" allow="private emergency authority army vip passenger hov taxi bus coach delivery truck trailer motorcycle evehicle custom1 custom2" speed="19.45" length="4.26" shape="975.08,378.28 975.88,377.30 976.40,376.61 976.88,375.88 977.57,374.82"/>
    </edge>
    <edge id=":2674754115_2" function="internal">
        <lane id=":2674754115_2_0" index="0" allow="private emergency authority army vip passenger hov taxi bus coach delivery truck trailer motorcycle evehicle custom1 custom2" speed="25.00" length="3.69" shape="972.64,376.20 975.23,373.29"/>
        <lane id=":2674754115_2_1" index="1" allow="private emergency authority army vip passenger hov taxi bus coach delivery truck trailer motorcycle evehicle custom1 custom2" speed="25.00" length="3.69" shape="970.21,374.12 972.52,371.52"/>
    </edge>
    <edge id=":395048702_0" function="internal">
        <lane id=":395048702_0_0" index="0" allow="private emergency authority army vip passenger hov taxi bus coach delivery truck trailer motorcycle evehicle custom1 custom2" speed="13.89" length="9.40" shape="572.61,617.39 575.08,617.76 576.75,618.14 578.37,618.73 580.65,619.74"/>
        <lane id=":395048702_0_1" index="1" allow="private emergency authority army vip passenger hov taxi bus coach delivery truck trailer motorcycle evehicle custom1 custom2" speed="13.89" length="9.40" shape="573.08,614.22 575.81,614.64 577.66,615.05 579.45,615.71 581.97,616.83"/>
        <lane id=":395048702_0_2" index="2" allow="private emergency authority army vip passenger hov taxi bus coach delivery truck trailer motorcycle evehicle custom1 custom2" speed="13.89" length="9.40" shape="573.08,614.22 576.15,614.18 578.34,613.55 580.45,613.17 583.29,613.92"/>
    </edge>
    <edge id=":395048709_0" function="internal">
        <lane id=":395048709_0_0" index="0" allow="private emergency authority army vip passenger hov taxi bus coach delivery truck trailer motorcycle evehicle custom1 custom2" speed="13.89" length="37.64" shape="710.03,796.36 713.67,806.51 717.02,815.78 719.88,824.22 722.06,831.87"/>
        <lane id=":395048709_0_1" index="1" allow="private emergency authority army vip passenger hov taxi bus coach delivery truck trailer motorcycle evehicle custom1 custom2" speed="13.89" length="37.64" shape="710.03,796.36 714.15,806.37 718.55,815.31 722.47,823.43 725.13,830.94"/>
    </edge>
    <edge id=":395048709_2" function="internal">
        <lane id=":395048709_2_0" index="0" allow="private emergency authority army vip passenger hov taxi bus coach delivery truck trailer motorcycle evehicle custom1 custom2" speed="13.89" length="32.75" shape="713.05,795.30 715.61,804.60 717.40,811.78 720.74,817.64 727.95,822.96"/>
        <lane id=":395048709_2_1" index="1" allow="private emergency authority army vip passenger hov taxi bus coach delivery truck trailer motorcycle evehicle custom1 custom2" speed="13.89" length="31.20" shape="716.07,794.24 718.50,803.30 720.04,810.02 723.12,815.42 730.18,820.53"/>
        <lane id=":395048709_2_2" index="2" allow="private emergency authority army vip passenger hov taxi bus coach delivery truck trailer motorcycle evehicle custom1 custom2" speed="13.89" length="30.12" shape="716.07,794.24 718.85,802.76 721.26,808.72 725.16,813.40 732.41,818.09"/>
    </edge>
    <edge id=":395048969_0" function="internal">
        <lane id=":395048969_0_0" index="0" allow="private emergency authority army vip passenger hov taxi bus coach delivery truck trailer motorcycle evehicle custom1 custom2" speed="19.45" length="3.39" shape="777.86,473.68 777.11,474.35 776.57,474.78 775.98,475.15 775.10,475.62"/>
    </edge>
    <edge id=":395048969_1" function="internal">
        <lane id=":395048969_1_0" index="0" allow="private emergency authority army vip passenger hov taxi bus coach delivery truck trailer motorcycle evehicle custom1 custom2" speed="25.00" length="3.90" shape="779.82,476.53 778.88,477.14 778.23,477.55 777.57,477.93 776.59,478.45"/>
        <lane id=":395048969_1_1" index="1" allow="private emergency authority army vip passenger hov taxi bus coach delivery truck trailer motorcycle evehicle custom1 custom2" speed="25.00" length="3.90" shape="781.55,479.22 780.55,479.87 779.85,480.31 779.14,480.72 778.08,481.28"/>
    </edge>
    <edge id=":395049034_0" function="internal">
        <lane id=":395049034_0_0" index="0" disallow="tram rail_urban rail rail_electric rail_fast ship" speed="16.67" length="7.41" shape="777.71,626.63 777.21,624.22 776.87,622.56 776.62,620.89 776.37,618.44"/>
        <lane id=":395049034_0_1" index="1" disallow="tram rail_urban rail rail_electric rail_fast ship" speed="16.67" length="7.41" shape="774.38,626.34 773.92,624.09 773.63,622.56 773.41,621.01 773.18,618.73"/>
        <lane id=":395049034_0_2" index="2" disallow="tram rail_urban rail rail_electric rail_fast ship" speed="16.67" length="7.41" shape="771.06,626.04 770.64,623.97 770.39,622.55 770.20,621.12 769.99,619.02"/>
        <lane id=":395049034_0_3" index="3" disallow="tram rail_urban rail rail_electric rail_fast ship" speed="16.67" length="7.41" shape="767.74,625.74 767.36,623.85 767.14,622.55 766.99,621.24 766.81,619.32"/>
    </edge>
    <edge id=":395049034_4" function="internal">
        <lane id=":395049034_4_0" index="0" disallow="tram rail_urban rail rail_electric rail_fast ship" speed="16.67" length="7.94" shape="771.42,626.07 771.41,623.97 770.98,622.55 770.41,621.13 769.99,619.02"/>
        <lane id=":395049034_4_1" index="1" disallow="tram rail_urban rail rail_electric rail_fast ship" speed="16.67" length="7.94" shape="771.42,626.07 770.94,623.87 769.42,622.70 767.75,621.52 766.81,619.32"/>
    </edge>
    <edge id=":395049086_0" function="internal">
        <lane id=":395049086_0_0" index="0" allow="private emergency authority army vip passenger hov taxi bus coach delivery truck trailer motorcycle evehicle custom1 custom2" speed="13.89" length="20.93" shape="763.88,346.62 742.95,346.92"/>
    </edge>
    <edge id=":395049086_1" function="internal">
        <lane id=":395049086_1_0" index="0" allow="private emergency authority army vip passenger hov taxi bus coach delivery truck trailer motorcycle evehicle custom1 custom2" speed="13.89" length="21.16" shape="763.88,346.62 757.82,346.76 753.53,347.74 749.32,349.40 743.55,351.57"/>
        <lane id=":395049086_1_1" index="1" allow="private emergency authority army vip passenger hov taxi bus coach delivery truck trailer motorcycle evehicle custom1 custom2" speed="13.89" length="20.00" shape="763.74,349.81 757.90,349.94 753.97,350.87 750.13,352.47 744.57,354.61"/>
    </edge>
    <edge id=":395052052_0" function="internal">
        <lane id=":395052052_0_0" index="0" allow="private emergency authority army vip passenger hov taxi bus coach delivery truck trailer motorcycle evehicle custom1 custom2" speed="19.45" length="6.53" shape="851.98,453.61 853.81,452.99 855.07,452.54 856.25,451.93 857.84,450.85"/>
    </edge>
    <edge id=":395052052_1" function="internal">
        <lane id=":395052052_1_0" index="0" allow="private emergency authority army vip passenger hov taxi bus coach delivery truck trailer motorcycle evehicle custom1 custom2" speed="12.65" length="4.63" shape="851.09,450.29 852.65,449.99 853.70,449.68 854.66,449.17 855.96,448.26"/>
        <lane id=":395052052_1_1" index="1" allow="private emergency authority army vip passenger hov taxi bus coach delivery truck trailer motorcycle evehicle custom1 custom2" speed="10.86" length="4.63" shape="850.53,447.14 851.66,446.93 852.43,446.70 853.13,446.33 854.08,445.67"/>
    </edge>
    <edge id=":395052053_0" function="internal">
        <lane id=":395052053_0_0" index="0" allow="private emergency authority army vip passenger hov taxi bus coach delivery truck trailer motorcycle evehicle custom1 custom2" speed="25.00" length="7.74" shape="968.66,350.53 974.03,344.81"/>
        <lane id=":395052053_0_1" index="1" allow="private emergency authority army vip passenger hov taxi bus coach delivery truck trailer motorcycle evehicle custom1 custom2" speed="25.00" length="7.74" shape="966.40,348.27 971.63,342.70"/>
    </edge>
    <edge id=":395052241_0" function="internal">
        <lane id=":395052241_0_0" index="0" allow="private emergency authority army vip passenger hov taxi bus coach delivery truck trailer motorcycle evehicle custom1 custom2" speed="13.89" length="15.32" shape="468.58,575.49 464.99,576.77 461.35,578.11 457.67,579.25 453.96,579.95"/>
    </edge>
    <edge id=":395052241_1" function="internal">
        <lane id=":395052241_1_0" index="0" allow="private emergency authority army vip passenger hov taxi bus coach delivery truck trailer motorcycle evehicle custom1 custom2" speed="13.89" length="15.32" shape="469.25,578.99 453.96,579.95"/>
    </edge>
    <edge id=":395053991_0" function="internal">
        <lane id=":395053991_0_0" index="0" allow="private emergency authority army vip passenger hov taxi bus coach delivery truck trailer motorcycle evehicle custom1 custom2" speed="13.89" length="10.71" shape="789.38,501.45 791.01,498.81 792.14,496.80 793.52,495.02 795.87,493.08"/>
    </edge>
    <edge id=":395053991_1" function="internal">
        <lane id=":395053991_1_0" index="0" allow="private emergency authority army vip passenger hov taxi bus coach delivery truck trailer motorcycle evehicle custom1 custom2" speed="11.11" length="10.69" shape="786.79,498.72 795.87,493.08"/>
    </edge>
    <edge id=":395054539_0" function="internal">
        <lane id=":395054539_0_0" index="0" disallow="tram rail_urban rail rail_electric rail_fast ship" speed="3.65" length="4.67" shape="754.11,317.39 753.21,318.51 753.06,319.40 753.68,320.04 755.07,320.45"/>
    </edge>
    <edge id=":4674044569_0" function="internal">
        <lane id=":4674044569_0_0" index="0" disallow="tram rail_urban rail rail_electric rail_fast ship" speed="16.67" length="11.03" shape="698.63,359.91 695.50,349.44"/>
        <lane id=":4674044569_0_1" index="1" disallow="tram rail_urban rail rail_electric rail_fast ship" speed="16.67" length="11.03" shape="695.58,360.88 692.42,350.31"/>
        <lane id=":4674044569_0_2" index="2" disallow="tram rail_urban rail rail_electric rail_fast ship" speed="16.67" length="11.03" shape="692.53,361.84 689.34,351.18"/>
    </edge>
    <edge id=":4674044569_3" function="internal">
        <lane id=":4674044569_3_0" index="0" disallow="pedestrian tram rail_urban rail rail_electric rail_fast ship" speed="6.42" length="10.85" shape="687.01,357.12 690.13,356.80 692.07,355.56 692.84,353.39 692.42,350.31"/>
        <lane id=":4674044569_3_1" index="1" disallow="pedestrian tram rail_urban rail rail_electric rail_fast ship" speed="5.54" length="7.74" shape="687.01,357.12 688.68,356.81 689.62,355.71 689.84,353.84 689.34,351.18"/>
    </edge>
    <edge id=":5146286232_0" function="internal">
        <lane id=":5146286232_0_0" index="0" disallow="tram rail_urban rail rail_electric rail_fast ship" speed="16.67" length="8.21" shape="664.92,314.07 665.39,316.43 665.34,318.13 665.28,319.82 665.75,322.19"/>
        <lane id=":5146286232_0_1" index="1" disallow="tram rail_urban rail rail_electric rail_fast ship" speed="16.67" length="8.21" shape="667.98,313.13 668.45,315.49 668.40,317.19 668.34,318.88 668.81,321.24"/>
        <lane id=":5146286232_0_2" index="2" disallow="tram rail_urban rail rail_electric rail_fast ship" speed="16.67" length="8.21" shape="671.04,312.18 671.51,314.55 671.45,316.24 671.40,317.94 671.87,320.30"/>
        <lane id=":5146286232_0_3" index="3" disallow="tram rail_urban rail rail_electric rail_fast ship" speed="16.67" length="8.21" shape="671.04,312.18 671.99,314.40 672.98,315.77 673.98,317.14 674.92,319.36"/>
    </edge>
    <edge id=":5701522692_0" function="internal">
        <lane id=":5701522692_0_0" index="0" disallow="tram rail_urban rail rail_electric rail_fast ship" speed="16.67" length="8.16" shape="748.28,708.61 748.11,710.97 747.60,712.55 747.07,714.13 746.83,716.50"/>
        <lane id=":5701522692_0_1" index="1" disallow="tram rail_urban rail rail_electric rail_fast ship" speed="16.67" length="8.16" shape="751.48,708.49 751.31,710.89 750.80,712.49 750.27,714.10 750.03,716.49"/>
        <lane id=":5701522692_0_2" index="2" disallow="tram rail_urban rail rail_electric rail_fast ship" speed="16.67" length="8.16" shape="751.48,708.49 751.81,710.89 752.40,712.49 752.97,714.09 753.23,716.49"/>
    </edge>
    <edge id=":627795060_0" function="internal">
        <lane id=":627795060_0_0" index="0" allow="private emergency authority army vip passenger hov taxi bus coach delivery truck trailer motorcycle evehicle custom1 custom2" speed="19.45" length="3.00" shape="585.38,554.63 582.48,555.43"/>
    </edge>
    <edge id=":627795060_1" function="internal">