<?xml version="1.0" encoding="UTF-8"?>

<!-- generated on 2023-07-17 16:16:02 by Eclipse SUMO netconvert Version 1.17.0
<configuration xmlns:xsi="http://www.w3.org/2001/XMLSchema-instance" xsi:noNamespaceSchemaLocation="http://sumo.dlr.de/xsd/netconvertConfiguration.xsd">

    <input>
        <sumo-net-file value="osm.net.xml.gz"/>
    </input>

    <output>
        <output-file value="osm.net.xml"/>
        <output.street-names value="true"/>
    </output>

    <processing>
        <geometry.min-radius.fix.railways value="false"/>
        <geometry.max-grade.fix value="false"/>
        <offset.disable-normalization value="true"/>
        <lefthand value="1"/>
    </processing>

    <junctions>
        <no-turnarounds value="true"/>
        <junctions.corner-detail value="5"/>
        <junctions.limit-turn-speed value="5.50"/>
        <rectangular-lane-cut value="0"/>
    </junctions>

    <pedestrian>
        <walkingareas value="0"/>
    </pedestrian>

</configuration>
-->

<net version="1.16" junctionCornerDetail="5" lefthand="true" limitTurnSpeed="5.50" xmlns:xsi="http://www.w3.org/2001/XMLSchema-instance" xsi:noNamespaceSchemaLocation="http://sumo.dlr.de/xsd/net_file.xsd">

    <location netOffset="-370673.95,-141231.99" convBoundary="0.00,0.00,427.58,461.89" origBoundary="103.837572,1.277505,103.841415,1.281683" projParameter="+proj=utm +zone=48 +ellps=WGS84 +datum=WGS84 +units=m +no_defs"/>

    <type id="highway.bridleway" priority="1" numLanes="1" speed="2.78" allow="pedestrian" oneway="1" width="2.00"/>
    <type id="highway.bus_guideway" priority="1" numLanes="1" speed="27.78" allow="bus" oneway="1"/>
    <type id="highway.cycleway" priority="1" numLanes="1" speed="5.56" allow="bicycle" oneway="0" width="1.00"/>
    <type id="highway.footway" priority="1" numLanes="1" speed="2.78" allow="pedestrian" oneway="1" width="2.00"/>
    <type id="highway.ford" priority="1" numLanes="1" speed="2.78" allow="army" oneway="0"/>
    <type id="highway.living_street" priority="2" numLanes="1" speed="2.78" disallow="tram rail_urban rail rail_electric rail_fast ship" oneway="0"/>
    <type id="highway.motorway" priority="14" numLanes="2" speed="39.44" allow="private emergency authority army vip passenger hov taxi bus coach delivery truck trailer motorcycle evehicle custom1 custom2" oneway="1"/>
    <type id="highway.motorway_link" priority="9" numLanes="1" speed="22.22" allow="private emergency authority army vip passenger hov taxi bus coach delivery truck trailer motorcycle evehicle custom1 custom2" oneway="1"/>
    <type id="highway.path" priority="1" numLanes="1" speed="5.56" allow="pedestrian bicycle" oneway="0" width="2.00"/>
    <type id="highway.pedestrian" priority="1" numLanes="1" speed="2.78" allow="pedestrian" oneway="1" width="2.00"/>
    <type id="highway.primary" priority="12" numLanes="2" speed="27.78" disallow="tram rail_urban rail rail_electric rail_fast ship" oneway="0"/>
    <type id="highway.primary_link" priority="7" numLanes="1" speed="22.22" disallow="tram rail_urban rail rail_electric rail_fast ship" oneway="0"/>
    <type id="highway.raceway" priority="15" numLanes="2" speed="83.33" allow="vip" oneway="0"/>
    <type id="highway.residential" priority="3" numLanes="1" speed="13.89" disallow="tram rail_urban rail rail_electric rail_fast ship" oneway="0"/>
    <type id="highway.secondary" priority="11" numLanes="1" speed="27.78" disallow="tram rail_urban rail rail_electric rail_fast ship" oneway="0"/>
    <type id="highway.secondary_link" priority="6" numLanes="1" speed="22.22" disallow="tram rail_urban rail rail_electric rail_fast ship" oneway="0"/>
    <type id="highway.service" priority="1" numLanes="1" speed="5.56" allow="pedestrian delivery bicycle" oneway="0"/>
    <type id="highway.stairs" priority="1" numLanes="1" speed="1.39" allow="pedestrian" oneway="1" width="2.00"/>
    <type id="highway.step" priority="1" numLanes="1" speed="1.39" allow="pedestrian" oneway="1" width="2.00"/>
    <type id="highway.steps" priority="1" numLanes="1" speed="1.39" allow="pedestrian" oneway="1" width="2.00"/>
    <type id="highway.tertiary" priority="10" numLanes="1" speed="22.22" disallow="tram rail_urban rail rail_electric rail_fast ship" oneway="0"/>
    <type id="highway.tertiary_link" priority="5" numLanes="1" speed="22.22" disallow="tram rail_urban rail rail_electric rail_fast ship" oneway="0"/>
    <type id="highway.track" priority="1" numLanes="1" speed="5.56" allow="pedestrian motorcycle moped bicycle" oneway="0"/>
    <type id="highway.trunk" priority="13" numLanes="2" speed="27.78" disallow="pedestrian bicycle tram rail_urban rail rail_electric rail_fast ship" oneway="0"/>
    <type id="highway.trunk_link" priority="8" numLanes="1" speed="22.22" disallow="pedestrian bicycle tram rail_urban rail rail_electric rail_fast ship" oneway="0"/>
    <type id="highway.unclassified" priority="4" numLanes="1" speed="13.89" disallow="tram rail_urban rail rail_electric rail_fast ship" oneway="0"/>
    <type id="highway.unsurfaced" priority="1" numLanes="1" speed="8.33" disallow="tram rail_urban rail rail_electric rail_fast ship" oneway="0"/>
    <type id="railway.highspeed" priority="21" numLanes="1" speed="69.44" allow="rail_fast" oneway="1"/>
    <type id="railway.light_rail" priority="19" numLanes="1" speed="27.78" allow="rail_urban" oneway="1"/>
    <type id="railway.preserved" priority="16" numLanes="1" speed="27.78" allow="rail" oneway="1"/>
    <type id="railway.rail" priority="20" numLanes="1" speed="44.44" allow="rail" oneway="1"/>
    <type id="railway.subway" priority="18" numLanes="1" speed="27.78" allow="rail_urban" oneway="1"/>
    <type id="railway.tram" priority="17" numLanes="1" speed="13.89" allow="tram" oneway="1"/>

    <edge id=":1829822445_0" function="internal">
        <lane id=":1829822445_0_0" index="0" disallow="tram rail_urban rail rail_electric rail_fast ship" speed="9.10" length="4.46" shape="203.44,244.82 204.24,245.85 204.66,246.66 204.87,247.56 205.04,248.86"/>
    </edge>
    <edge id=":1829822445_1" function="internal">
        <lane id=":1829822445_1_0" index="0" disallow="tram rail_urban rail rail_electric rail_fast ship" speed="16.67" length="2.61" shape="205.89,242.76 203.83,242.09"/>
        <lane id=":1829822445_1_1" index="1" disallow="tram rail_urban rail rail_electric rail_fast ship" speed="16.67" length="2.61" shape="208.33,240.70 206.11,239.84"/>
        <lane id=":1829822445_1_2" index="2" disallow="tram rail_urban rail rail_electric rail_fast ship" speed="16.67" length="2.61" shape="210.78,238.63 208.39,237.59"/>
        <lane id=":1829822445_1_3" index="3" disallow="tram rail_urban rail rail_electric rail_fast ship" speed="16.67" length="2.61" shape="213.23,236.57 210.67,235.35"/>
        <lane id=":1829822445_1_4" index="4" disallow="tram rail_urban rail rail_electric rail_fast ship" speed="16.67" length="2.61" shape="215.67,234.51 212.95,233.10"/>
    </edge>
    <edge id=":1829822450_0" function="internal">
        <lane id=":1829822450_0_0" index="0" disallow="tram rail_urban rail rail_electric rail_fast ship" speed="14.16" length="16.57" shape="213.19,323.51 215.47,319.26 217.70,316.71 220.68,314.93 225.17,312.98"/>
        <lane id=":1829822450_0_1" index="1" disallow="tram rail_urban rail rail_electric rail_fast ship" speed="14.42" length="17.21" shape="213.19,323.51 215.17,318.76 216.65,315.35 218.90,312.72 223.17,310.35"/>
    </edge>
    <edge id=":1829822450_2" function="internal">
        <lane id=":1829822450_2_0" index="0" disallow="tram rail_urban rail rail_electric rail_fast ship" speed="16.67" length="17.11" shape="213.19,323.51 215.21,318.66 216.16,315.18 216.89,311.61 218.24,306.50"/>
        <lane id=":1829822450_2_1" index="1" disallow="tram rail_urban rail rail_electric rail_fast ship" speed="16.67" length="17.11" shape="210.30,322.14 212.26,317.42 213.17,314.02 213.87,310.54 215.18,305.56"/>
        <lane id=":1829822450_2_2" index="2" disallow="tram rail_urban rail rail_electric rail_fast ship" speed="16.67" length="17.11" shape="207.40,320.78 209.31,316.17 210.19,312.86 210.85,309.47 212.13,304.62"/>
        <lane id=":1829822450_2_3" index="3" disallow="tram rail_urban rail rail_electric rail_fast ship" speed="16.67" length="17.11" shape="204.51,319.41 206.36,314.93 207.20,311.71 207.83,308.40 209.07,303.68"/>
    </edge>
    <edge id=":1829822453_0" function="internal">
        <lane id=":1829822453_0_0" index="0" disallow="tram rail_urban rail rail_electric rail_fast ship" speed="10.14" length="10.45" shape="213.06,194.52 210.64,194.46 208.26,193.81 205.93,192.58 203.64,190.76"/>
        <lane id=":1829822453_0_1" index="1" disallow="tram rail_urban rail rail_electric rail_fast ship" speed="10.81" length="11.93" shape="213.06,194.52 208.91,194.76 205.59,194.60 203.11,194.05 201.46,193.10"/>
    </edge>
    <edge id=":1829822453_2" function="internal">
        <lane id=":1829822453_2_0" index="0" disallow="tram rail_urban rail rail_electric rail_fast ship" speed="16.67" length="10.98" shape="211.54,198.69 203.64,190.76"/>
        <lane id=":1829822453_2_1" index="1" disallow="tram rail_urban rail rail_electric rail_fast ship" speed="16.67" length="10.98" shape="209.26,200.93 201.46,193.10"/>
        <lane id=":1829822453_2_2" index="2" disallow="tram rail_urban rail rail_electric rail_fast ship" speed="16.67" length="10.98" shape="206.98,203.17 199.28,195.45"/>
        <lane id=":1829822453_2_3" index="3" disallow="tram rail_urban rail rail_electric rail_fast ship" speed="16.67" length="10.98" shape="204.69,205.41 197.10,197.79"/>
    </edge>
    <edge id=":1829822456_0" function="internal">
        <lane id=":1829822456_0_0" index="0" disallow="tram rail_urban rail rail_electric rail_fast ship" speed="15.28" length="22.76" shape="205.80,254.89 206.47,259.02 207.02,264.05 206.65,270.09 204.58,277.26"/>
    </edge>
    <edge id=":1829822456_1" function="internal">
        <lane id=":1829822456_1_0" index="0" disallow="tram rail_urban rail rail_electric rail_fast ship" speed="16.67" length="12.94" shape="207.46,264.77 206.39,268.42 206.07,271.04 205.73,273.65 204.58,277.26"/>
        <lane id=":1829822456_1_1" index="1" disallow="tram rail_urban rail rail_electric rail_fast ship" speed="16.67" length="12.94" shape="210.45,265.91 209.37,269.57 209.05,272.21 208.71,274.84 207.55,278.47"/>
        <lane id=":1829822456_1_2" index="2" disallow="tram rail_urban rail rail_electric rail_fast ship" speed="16.67" length="12.94" shape="213.44,267.05 212.36,270.73 212.03,273.38 211.68,276.02 210.51,279.68"/>
    </edge>
    <edge id=":1829822462_0" function="internal">
        <lane id=":1829822462_0_0" index="0" allow="bus bicycle" speed="16.67" length="17.82" shape="266.57,304.07 255.44,290.16"/>
    </edge>
    <edge id=":1829822462_1" function="internal">
        <lane id=":1829822462_1_0" index="0" allow="bus bicycle" speed="3.65" length="1.44" shape="266.57,304.07 265.22,303.57"/>
    </edge>
    <edge id=":1829822462_11" function="internal">
        <lane id=":1829822462_11_0" index="0" allow="bus bicycle" speed="3.65" length="3.23" shape="265.22,303.57 264.34,303.71 263.92,304.51 263.98,305.95"/>
    </edge>
    <edge id=":1829822462_2" function="internal">
        <lane id=":1829822462_2_0" index="0" disallow="tram rail_urban rail rail_electric rail_fast ship" speed="10.98" length="19.74" shape="239.30,307.43 244.94,306.82 249.63,307.31 253.39,308.89 256.21,311.58"/>
        <lane id=":1829822462_2_1" index="1" disallow="tram rail_urban rail rail_electric rail_fast ship" speed="11.28" length="19.74" shape="241.43,303.77 246.82,303.32 251.51,304.16 255.50,306.29 258.80,309.70"/>
        <lane id=":1829822462_2_2" index="2" disallow="tram rail_urban rail rail_electric rail_fast ship" speed="11.82" length="19.74" shape="241.43,303.77 248.29,302.95 253.90,303.36 258.26,304.98 261.39,307.83"/>
    </edge>
    <edge id=":1829822462_5" function="internal">
        <lane id=":1829822462_5_0" index="0" allow="bus bicycle" speed="8.93" length="24.27" shape="241.43,303.77 248.97,301.91 254.71,299.19 257.31,295.36 255.44,290.16"/>
    </edge>
    <edge id=":1829822462_6" function="internal">
        <lane id=":1829822462_6_0" index="0" disallow="tram rail_urban rail rail_electric rail_fast ship" speed="16.67" length="17.64" shape="245.25,297.90 256.21,311.58"/>
        <lane id=":1829822462_6_1" index="1" disallow="tram rail_urban rail rail_electric rail_fast ship" speed="16.67" length="17.64" shape="247.80,295.96 258.80,309.70"/>
        <lane id=":1829822462_6_2" index="2" disallow="tram rail_urban rail rail_electric rail_fast ship" speed="16.67" length="17.64" shape="250.35,294.03 261.39,307.83"/>
        <lane id=":1829822462_6_3" index="3" disallow="tram rail_urban rail rail_electric rail_fast ship" speed="16.67" length="17.64" shape="252.89,292.09 263.98,305.95"/>
    </edge>
    <edge id=":1829822462_10" function="internal">
        <lane id=":1829822462_10_0" index="0" allow="bus bicycle" speed="3.65" length="1.44" shape="252.89,292.09 254.26,292.56"/>
    </edge>
    <edge id=":1829822462_12" function="internal">
        <lane id=":1829822462_12_0" index="0" allow="bus bicycle" speed="3.65" length="3.23" shape="254.26,292.56 255.13,292.40 255.53,291.59 255.44,290.16"/>
    </edge>
    <edge id=":1836286636_0" function="internal">
        <lane id=":1836286636_0_0" index="0" disallow="tram rail_urban rail rail_electric rail_fast ship" speed="13.89" length="3.50" shape="303.72,249.01 304.57,248.55 305.35,248.58 306.12,248.62 306.99,248.18"/>
    </edge>
    <edge id=":1852241847_0" function="internal">
        <lane id=":1852241847_0_0" index="0" allow="bus bicycle" speed="3.65" length="4.67" shape="424.03,462.90 425.41,463.33 426.28,463.13 426.65,462.32 426.51,460.88"/>
    </edge>
    <edge id=":237279064_0" function="internal">
        <lane id=":237279064_0_0" index="0" disallow="tram rail_urban rail rail_electric rail_fast ship" speed="12.69" length="13.25" shape="236.23,184.47 234.21,187.95 232.08,190.10 229.61,191.53 226.54,192.85"/>
    </edge>
    <edge id=":237279064_1" function="internal">
        <lane id=":237279064_1_0" index="0" disallow="tram rail_urban rail rail_electric rail_fast ship" speed="16.67" length="13.29" shape="236.23,184.47 231.05,196.92"/>
        <lane id=":237279064_1_1" index="1" disallow="tram rail_urban rail rail_electric rail_fast ship" speed="16.67" length="13.29" shape="239.12,185.84 233.98,198.20"/>
        <lane id=":237279064_1_2" index="2" disallow="tram rail_urban rail rail_electric rail_fast ship" speed="16.67" length="13.29" shape="242.02,187.21 236.92,199.48"/>
        <lane id=":237279064_1_3" index="3" disallow="tram rail_urban rail rail_electric rail_fast ship" speed="16.67" length="13.29" shape="244.91,188.58 239.85,200.76"/>
        <lane id=":237279064_1_4" index="4" disallow="tram rail_urban rail rail_electric rail_fast ship" speed="16.67" length="13.29" shape="247.80,189.95 242.78,202.04"/>
    </edge>
    <edge id=":2391152439_0" function="internal">
        <lane id=":2391152439_0_0" index="0" disallow="tram rail_urban rail rail_electric rail_fast ship" speed="16.67" length="8.12" shape="124.58,128.56 122.70,127.02 121.64,125.67 120.56,124.35 118.63,122.88"/>
        <lane id=":2391152439_0_1" index="1" disallow="tram rail_urban rail rail_electric rail_fast ship" speed="16.67" length="8.12" shape="122.82,131.23 120.96,129.70 119.92,128.37 118.86,127.06 116.96,125.60"/>
        <lane id=":2391152439_0_2" index="2" disallow="tram rail_urban rail rail_electric rail_fast ship" speed="16.67" length="8.12" shape="121.05,133.90 119.22,132.39 118.20,131.07 117.16,129.77 115.29,128.33"/>
        <lane id=":2391152439_0_3" index="3" disallow="tram rail_urban rail rail_electric rail_fast ship" speed="16.67" length="8.12" shape="119.28,136.57 117.48,135.08 116.48,133.77 115.46,132.49 113.62,131.06"/>
    </edge>
    <edge id=":3324524505_0" function="internal">
        <lane id=":3324524505_0_0" index="0" disallow="tram rail_urban rail rail_electric rail_fast ship" speed="13.89" length="11.55" shape="393.49,87.97 383.25,82.12"/>
        <lane id=":3324524505_0_1" index="1" disallow="tram rail_urban rail rail_electric rail_fast ship" speed="13.89" length="11.55" shape="391.81,90.69 381.77,84.96"/>
        <lane id=":3324524505_0_2" index="2" disallow="tram rail_urban rail rail_electric rail_fast ship" speed="13.89" length="11.55" shape="390.13,93.42 380.30,87.80"/>
    </edge>
    <edge id=":3324524505_3" function="internal">
        <lane id=":3324524505_3_0" index="0" disallow="tram rail_urban rail rail_electric rail_fast ship" speed="6.30" length="9.08" shape="390.13,93.42 387.82,92.42 385.81,92.45 384.10,93.52 382.68,95.63"/>
    </edge>
    <edge id=":3344055036_0" function="internal">
        <lane id=":3344055036_0_0" index="0" disallow="tram rail_urban rail rail_electric rail_fast ship" speed="6.91" length="10.45" shape="277.00,279.14 275.71,276.98 275.60,274.76 276.64,272.49 278.85,270.16"/>
    </edge>
    <edge id=":3344055036_1" function="internal">
        <lane id=":3344055036_1_0" index="0" disallow="tram rail_urban rail rail_electric rail_fast ship" speed="16.67" length="11.85" shape="277.00,279.14 274.99,276.45 273.97,274.35 273.00,272.21 271.18,269.37"/>
        <lane id=":3344055036_1_1" index="1" disallow="tram rail_urban rail rail_electric rail_fast ship" speed="16.67" length="11.85" shape="274.58,281.25 272.53,278.50 271.48,276.37 270.49,274.19 268.62,271.29"/>
        <lane id=":3344055036_1_2" index="2" disallow="tram rail_urban rail rail_electric rail_fast ship" speed="16.67" length="11.85" shape="272.17,283.35 270.08,280.55 268.99,278.38 267.97,276.16 266.06,273.21"/>
        <lane id=":3344055036_1_3" index="3" disallow="tram rail_urban rail rail_electric rail_fast ship" speed="16.67" length="11.85" shape="269.76,285.45 267.62,282.60 266.50,280.40 265.45,278.14 263.50,275.13"/>
        <lane id=":3344055036_1_4" index="4" disallow="tram rail_urban rail rail_electric rail_fast ship" speed="16.67" length="11.85" shape="269.76,285.45 267.21,282.89 265.22,281.36 263.30,279.77 260.94,277.05"/>
    </edge>
    <edge id=":4550981226_0" function="internal">
        <lane id=":4550981226_0_0" index="0" disallow="tram rail_urban rail rail_electric rail_fast ship" speed="16.67" length="7.97" shape="263.60,131.01 262.19,133.03 260.93,134.22 259.72,135.43 258.45,137.52"/>
        <lane id=":4550981226_0_1" index="1" disallow="tram rail_urban rail rail_electric rail_fast ship" speed="16.67" length="7.97" shape="266.39,132.56 265.02,134.53 263.78,135.68 262.59,136.85 261.34,138.89"/>
        <lane id=":4550981226_0_2" index="2" disallow="tram rail_urban rail rail_electric rail_fast ship" speed="16.67" length="7.97" shape="269.19,134.12 267.84,136.03 266.63,137.14 265.45,138.28 264.24,140.26"/>
        <lane id=":4550981226_0_3" index="3" disallow="tram rail_urban rail rail_electric rail_fast ship" speed="16.67" length="7.97" shape="271.99,135.67 270.67,137.53 269.47,138.61 268.32,139.70 267.13,141.63"/>
        <lane id=":4550981226_0_4" index="4" disallow="tram rail_urban rail rail_electric rail_fast ship" speed="16.67" length="7.97" shape="271.99,135.67 271.13,137.73 270.92,139.29 270.75,140.87 270.02,143.00"/>
    </edge>
    <edge id=":4550981227_0" function="internal">
        <lane id=":4550981227_0_0" index="0" disallow="tram rail_urban rail rail_electric rail_fast ship" speed="16.67" length="8.19" shape="285.93,142.28 287.28,140.26 288.51,139.08 289.73,137.90 291.05,135.86"/>
        <lane id=":4550981227_0_1" index="1" disallow="tram rail_urban rail rail_electric rail_fast ship" speed="16.67" length="8.19" shape="283.10,140.79 284.44,138.79 285.67,137.62 286.89,136.44 288.19,134.42"/>
        <lane id=":4550981227_0_2" index="2" disallow="tram rail_urban rail rail_electric rail_fast ship" speed="16.67" length="8.19" shape="280.27,139.30 281.60,137.31 282.82,136.15 284.04,134.98 285.33,132.97"/>
        <lane id=":4550981227_0_3" index="3" disallow="tram rail_urban rail rail_electric rail_fast ship" speed="16.67" length="8.19" shape="280.27,139.30 281.15,137.09 281.40,135.43 281.63,133.76 282.48,131.53"/>
    </edge>
    <edge id=":4736505223_0" function="internal">
        <lane id=":4736505223_0_0" index="0" allow="bus bicycle" speed="3.65" length="4.67" shape="29.70,92.47 28.26,92.49 27.49,92.94 27.39,93.83 27.96,95.15"/>
    </edge>
    <edge id=":4955191336_0" function="internal">
        <lane id=":4955191336_0_0" index="0" disallow="tram rail_urban rail rail_electric rail_fast ship" speed="13.89" length="7.72" shape="345.24,326.42 343.34,327.64 341.62,327.78 339.84,327.87 337.78,328.92"/>
        <lane id=":4955191336_0_1" index="1" disallow="tram rail_urban rail rail_electric rail_fast ship" speed="13.89" length="7.72" shape="345.24,326.42 343.71,327.98 342.63,329.01 341.50,330.00 339.82,331.39"/>
    </edge>
    <edge id=":4955191336_2" function="internal">
        <lane id=":4955191336_2_0" index="0" disallow="tram rail_urban rail rail_electric rail_fast ship" speed="13.89" length="7.70" shape="341.85,333.86 343.61,332.41 344.79,331.38 345.92,330.29 347.52,328.67"/>
    </edge>
    <edge id=":4982866834_0" function="internal">
        <lane id=":4982866834_0_0" index="0" disallow="tram rail_urban rail rail_electric rail_fast ship" speed="13.89" length="8.04" shape="360.53,70.30 358.49,68.96 357.29,67.74 356.06,66.56 353.97,65.34"/>
        <lane id=":4982866834_0_1" index="1" disallow="tram rail_urban rail rail_electric rail_fast ship" speed="13.89" length="8.04" shape="359.05,73.14 357.06,71.83 355.89,70.62 354.70,69.46 352.65,68.26"/>
        <lane id=":4982866834_0_2" index="2" disallow="tram rail_urban rail rail_electric rail_fast ship" speed="13.89" length="8.04" shape="357.57,75.98 355.63,74.69 354.49,73.50 353.33,72.35 351.34,71.17"/>
        <lane id=":4982866834_0_3" index="3" disallow="tram rail_urban rail rail_electric rail_fast ship" speed="13.89" length="8.04" shape="357.57,75.98 355.43,75.15 353.83,74.96 352.21,74.81 350.02,74.09"/>
    </edge>
    <edge id=":5980600462_0" function="internal">
        <lane id=":5980600462_0_0" index="0" allow="bus bicycle" speed="3.65" length="4.67" shape="379.82,445.20 381.22,445.57 382.08,445.34 382.41,444.51 382.22,443.08"/>
    </edge>
    <edge id=":5988588430_0" function="internal">
        <lane id=":5988588430_0_0" index="0" disallow="tram rail_urban rail rail_electric rail_fast ship" speed="16.67" length="9.48" shape="124.91,168.93 127.13,169.44 128.98,168.70 130.78,168.04 132.82,168.79"/>
        <lane id=":5988588430_0_1" index="1" disallow="tram rail_urban rail rail_electric rail_fast ship" speed="16.67" length="9.48" shape="126.63,166.22 128.94,166.80 130.87,166.11 132.74,165.51 134.87,166.33"/>
        <lane id=":5988588430_0_2" index="2" disallow="tram rail_urban rail rail_electric rail_fast ship" speed="16.67" length="9.48" shape="128.34,163.52 130.75,164.16 132.75,163.53 134.70,162.98 136.92,163.87"/>
        <lane id=":5988588430_0_3" index="3" disallow="tram rail_urban rail rail_electric rail_fast ship" speed="16.67" length="9.48" shape="130.05,160.82 132.55,161.52 134.64,160.94 136.66,160.45 138.97,161.41"/>
        <lane id=":5988588430_0_4" index="4" disallow="tram rail_urban rail rail_electric rail_fast ship" speed="16.67" length="9.48" shape="130.05,160.82 133.14,161.28 135.69,159.67 138.16,158.16 141.01,158.95"/>
    </edge>
    <edge id=":5988588430_5" function="internal">
        <lane id=":5988588430_5_0" index="0" allow="bus bicycle" speed="3.65" length="4.67" shape="130.05,160.82 131.49,160.78 132.26,160.32 132.35,159.43 131.76,158.11"/>
    </edge>
    <edge id=":5991929490_0" function="internal">
        <lane id=":5991929490_0_0" index="0" disallow="tram rail_urban rail rail_electric rail_fast ship" speed="16.67" length="8.21" shape="164.20,197.34 165.68,199.24 166.40,200.77 167.11,202.30 168.60,204.20"/>
        <lane id=":5991929490_0_1" index="1" disallow="tram rail_urban rail rail_electric rail_fast ship" speed="16.67" length="8.21" shape="166.50,195.12 167.98,197.01 168.70,198.55 169.42,200.08 170.90,201.98"/>
        <lane id=":5991929490_0_2" index="2" disallow="tram rail_urban rail rail_electric rail_fast ship" speed="16.67" length="8.21" shape="168.80,192.89 170.29,194.79 171.00,196.33 171.72,197.86 173.20,199.76"/>
        <lane id=":5991929490_0_3" index="3" disallow="tram rail_urban rail rail_electric rail_fast ship" speed="16.67" length="8.21" shape="171.10,190.67 172.59,192.57 173.31,194.10 174.02,195.64 175.51,197.54"/>
        <lane id=":5991929490_0_4" index="4" disallow="tram rail_urban rail rail_electric rail_fast ship" speed="16.67" length="8.21" shape="173.40,188.45 174.89,190.35 175.61,191.88 176.33,193.42 177.81,195.32"/>
        <lane id=":5991929490_0_5" index="5" disallow="tram rail_urban rail rail_electric rail_fast ship" speed="16.67" length="8.21" shape="173.40,188.45 175.25,190.00 176.76,190.77 178.27,191.54 180.12,193.10"/>
    </edge>
    <edge id=":5994555593_0" function="internal">
        <lane id=":5994555593_0_0" index="0" disallow="tram rail_urban rail rail_electric rail_fast ship" speed="16.67" length="8.11" shape="151.64,145.36 149.89,143.63 148.94,142.18 147.96,140.77 146.14,139.13"/>
        <lane id=":5994555593_0_1" index="1" disallow="tram rail_urban rail rail_electric rail_fast ship" speed="16.67" length="8.11" shape="151.64,145.36 149.60,144.04 148.00,143.48 146.37,142.94 144.26,141.72"/>
        <lane id=":5994555593_0_2" index="2" disallow="tram rail_urban rail rail_electric rail_fast ship" speed="16.67" length="8.11" shape="149.63,147.85 147.63,146.56 146.05,146.02 144.45,145.50 142.38,144.30"/>
        <lane id=":5994555593_0_3" index="3" disallow="tram rail_urban rail rail_electric rail_fast ship" speed="16.67" length="8.11" shape="147.62,150.34 145.65,149.08 144.10,148.56 142.52,148.06 140.49,146.89"/>
        <lane id=":5994555593_0_4" index="4" disallow="tram rail_urban rail rail_electric rail_fast ship" speed="16.67" length="8.11" shape="145.60,152.83 143.68,151.60 142.15,151.09 140.60,150.62 138.61,149.48"/>
    </edge>
    <edge id=":6117305211_0" function="internal">
        <lane id=":6117305211_0_0" index="0" disallow="tram rail_urban rail rail_electric rail_fast ship" speed="16.67" length="10.17" shape="383.04,393.72 380.85,392.28 378.68,392.26 376.53,392.23 374.39,390.75"/>
        <lane id=":6117305211_0_1" index="1" disallow="tram rail_urban rail rail_electric rail_fast ship" speed="16.67" length="10.17" shape="380.60,395.78 378.39,394.33 376.21,394.30 374.05,394.25 371.89,392.75"/>
        <lane id=":6117305211_0_2" index="2" disallow="tram rail_urban rail rail_electric rail_fast ship" speed="16.67" length="10.17" shape="378.16,397.85 375.93,396.38 373.74,396.33 371.56,396.27 369.39,394.75"/>
        <lane id=":6117305211_0_3" index="3" disallow="tram rail_urban rail rail_electric rail_fast ship" speed="16.67" length="10.17" shape="375.71,399.92 373.47,398.43 371.27,398.36 369.08,398.29 366.89,396.75"/>
        <lane id=":6117305211_0_4" index="4" disallow="tram rail_urban rail rail_electric rail_fast ship" speed="16.67" length="10.17" shape="375.71,399.92 372.89,398.53 370.01,399.37 367.15,400.20 364.39,398.75"/>
    </edge>
    <edge id=":6117305211_5" function="internal">
        <lane id=":6117305211_5_0" index="0" allow="bus bicycle" speed="3.65" length="4.67" shape="375.71,399.92 374.33,399.52 373.46,399.73 373.11,400.55 373.27,401.98"/>
    </edge>
    <edge id=":6228696460_0" function="internal">
        <lane id=":6228696460_0_0" index="0" disallow="tram rail_urban rail rail_electric rail_fast ship" speed="13.89" length="8.19" shape="353.59,169.68 352.43,171.79 351.31,173.06 350.20,174.33 349.08,176.46"/>
        <lane id=":6228696460_0_1" index="1" disallow="tram rail_urban rail rail_electric rail_fast ship" speed="13.89" length="8.19" shape="353.59,169.68 352.90,171.97 352.79,173.65 352.70,175.34 352.05,177.65"/>
    </edge>
    <edge id=":7281239568_0" function="internal">
        <lane id=":7281239568_0_0" index="0" disallow="tram rail_urban rail rail_electric rail_fast ship" speed="16.67" length="8.20" shape="287.08,92.13 285.68,94.11 284.41,95.24 283.15,96.37 281.76,98.35"/>
        <lane id=":7281239568_0_1" index="1" disallow="tram rail_urban rail rail_electric rail_fast ship" speed="16.67" length="8.20" shape="289.87,93.71 288.47,95.67 287.20,96.80 285.94,97.93 284.56,99.91"/>
        <lane id=":7281239568_0_2" index="2" disallow="tram rail_urban rail rail_electric rail_fast ship" speed="16.67" length="8.20" shape="292.65,95.28 291.26,97.24 289.99,98.37 288.74,99.49 287.35,101.46"/>
        <lane id=":7281239568_0_3" index="3" disallow="tram rail_urban rail rail_electric rail_fast ship" speed="16.67" length="8.20" shape="292.65,95.28 291.70,97.49 291.39,99.15 291.09,100.81 290.15,103.02"/>
    </edge>
    <edge id=":cluster_1829822444_1829822457_3324524499_6130404629_#2more_0" function="internal">
        <lane id=":cluster_1829822444_1829822457_3324524499_6130404629_#2more_0_0" index="0" disallow="tram rail_urban rail rail_electric rail_fast ship" speed="7.39" length="12.01" shape="335.96,57.44 333.48,55.87 332.16,53.66 332.00,50.80 333.00,47.31"/>
    </edge>
    <edge id=":cluster_1829822444_1829822457_3324524499_6130404629_#2more_1" function="internal">
        <lane id=":cluster_1829822444_1829822457_3324524499_6130404629_#2more_1_0" index="0" disallow="tram rail_urban rail rail_electric rail_fast ship" speed="13.89" length="55.52" shape="335.96,57.44 322.45,52.32 309.30,48.15 295.93,44.72 281.76,41.83"/>