<?xml version="1.0" encoding="UTF-8"?>

<!-- generated on 2023-07-20 11:00:53 by Eclipse SUMO netconvert Version 1.17.0
<configuration xmlns:xsi="http://www.w3.org/2001/XMLSchema-instance" xsi:noNamespaceSchemaLocation="http://sumo.dlr.de/xsd/netconvertConfiguration.xsd">

    <input>
        <sumo-net-file value="osm.net.xml.gz"/>
    </input>

    <output>
        <output-file value="osm.net.xml"/>
        <output.street-names value="true"/>
    </output>

    <processing>
        <geometry.min-radius.fix.railways value="false"/>
        <geometry.max-grade.fix value="false"/>
        <offset.disable-normalization value="true"/>
        <lefthand value="1"/>
    </processing>

    <junctions>
        <no-turnarounds value="true"/>
        <junctions.corner-detail value="5"/>
        <junctions.limit-turn-speed value="5.50"/>
        <rectangular-lane-cut value="0"/>
    </junctions>

    <pedestrian>
        <walkingareas value="0"/>
    </pedestrian>

</configuration>
-->

<net version="1.16" junctionCornerDetail="5" lefthand="true" limitTurnSpeed="5.50" xmlns:xsi="http://www.w3.org/2001/XMLSchema-instance" xsi:noNamespaceSchemaLocation="http://sumo.dlr.de/xsd/net_file.xsd">

    <location netOffset="-372630.88,-153442.87" convBoundary="0.00,0.00,588.51,823.76" origBoundary="103.855107,1.387966,103.860397,1.395416" projParameter="+proj=utm +zone=48 +ellps=WGS84 +datum=WGS84 +units=m +no_defs"/>

    <type id="highway.bridleway" priority="1" numLanes="1" speed="2.78" allow="pedestrian" oneway="1" width="2.00"/>
    <type id="highway.bus_guideway" priority="1" numLanes="1" speed="27.78" allow="bus" oneway="1"/>
    <type id="highway.cycleway" priority="1" numLanes="1" speed="5.56" allow="bicycle" oneway="0" width="1.00"/>
    <type id="highway.footway" priority="1" numLanes="1" speed="2.78" allow="pedestrian" oneway="1" width="2.00"/>
    <type id="highway.ford" priority="1" numLanes="1" speed="2.78" allow="army" oneway="0"/>
    <type id="highway.living_street" priority="2" numLanes="1" speed="2.78" disallow="tram rail_urban rail rail_electric rail_fast ship" oneway="0"/>
    <type id="highway.motorway" priority="14" numLanes="2" speed="39.44" allow="private emergency authority army vip passenger hov taxi bus coach delivery truck trailer motorcycle evehicle custom1 custom2" oneway="1"/>
    <type id="highway.motorway_link" priority="9" numLanes="1" speed="22.22" allow="private emergency authority army vip passenger hov taxi bus coach delivery truck trailer motorcycle evehicle custom1 custom2" oneway="1"/>
    <type id="highway.path" priority="1" numLanes="1" speed="5.56" allow="pedestrian bicycle" oneway="0" width="2.00"/>
    <type id="highway.pedestrian" priority="1" numLanes="1" speed="2.78" allow="pedestrian" oneway="1" width="2.00"/>
    <type id="highway.primary" priority="12" numLanes="2" speed="27.78" disallow="tram rail_urban rail rail_electric rail_fast ship" oneway="0"/>
    <type id="highway.primary_link" priority="7" numLanes="1" speed="22.22" disallow="tram rail_urban rail rail_electric rail_fast ship" oneway="0"/>
    <type id="highway.raceway" priority="15" numLanes="2" speed="83.33" allow="vip" oneway="0"/>
    <type id="highway.residential" priority="3" numLanes="1" speed="13.89" disallow="tram rail_urban rail rail_electric rail_fast ship" oneway="0"/>
    <type id="highway.secondary" priority="11" numLanes="1" speed="27.78" disallow="tram rail_urban rail rail_electric rail_fast ship" oneway="0"/>
    <type id="highway.secondary_link" priority="6" numLanes="1" speed="22.22" disallow="tram rail_urban rail rail_electric rail_fast ship" oneway="0"/>
    <type id="highway.service" priority="1" numLanes="1" speed="5.56" allow="pedestrian delivery bicycle" oneway="0"/>
    <type id="highway.stairs" priority="1" numLanes="1" speed="1.39" allow="pedestrian" oneway="1" width="2.00"/>
    <type id="highway.step" priority="1" numLanes="1" speed="1.39" allow="pedestrian" oneway="1" width="2.00"/>
    <type id="highway.steps" priority="1" numLanes="1" speed="1.39" allow="pedestrian" oneway="1" width="2.00"/>
    <type id="highway.tertiary" priority="10" numLanes="1" speed="22.22" disallow="tram rail_urban rail rail_electric rail_fast ship" oneway="0"/>
    <type id="highway.tertiary_link" priority="5" numLanes="1" speed="22.22" disallow="tram rail_urban rail rail_electric rail_fast ship" oneway="0"/>
    <type id="highway.track" priority="1" numLanes="1" speed="5.56" allow="pedestrian motorcycle moped bicycle" oneway="0"/>
    <type id="highway.trunk" priority="13" numLanes="2" speed="27.78" disallow="pedestrian bicycle tram rail_urban rail rail_electric rail_fast ship" oneway="0"/>
    <type id="highway.trunk_link" priority="8" numLanes="1" speed="22.22" disallow="pedestrian bicycle tram rail_urban rail rail_electric rail_fast ship" oneway="0"/>
    <type id="highway.unclassified" priority="4" numLanes="1" speed="13.89" disallow="tram rail_urban rail rail_electric rail_fast ship" oneway="0"/>
    <type id="highway.unsurfaced" priority="1" numLanes="1" speed="8.33" disallow="tram rail_urban rail rail_electric rail_fast ship" oneway="0"/>
    <type id="railway.highspeed" priority="21" numLanes="1" speed="69.44" allow="rail_fast" oneway="1"/>
    <type id="railway.light_rail" priority="19" numLanes="1" speed="27.78" allow="rail_urban" oneway="1"/>
    <type id="railway.preserved" priority="16" numLanes="1" speed="27.78" allow="rail" oneway="1"/>
    <type id="railway.rail" priority="20" numLanes="1" speed="44.44" allow="rail" oneway="1"/>
    <type id="railway.subway" priority="18" numLanes="1" speed="27.78" allow="rail_urban" oneway="1"/>
    <type id="railway.tram" priority="17" numLanes="1" speed="13.89" allow="tram" oneway="1"/>

    <edge id=":213011533_0" function="internal">
        <lane id=":213011533_0_0" index="0" allow="private emergency authority army vip passenger hov taxi bus coach delivery truck trailer motorcycle evehicle custom1 custom2" speed="15.28" length="14.66" shape="424.00,346.04 426.69,342.90 428.44,340.49 430.53,338.68 434.21,337.32"/>
        <lane id=":213011533_0_1" index="1" allow="private emergency authority army vip passenger hov taxi bus coach delivery truck trailer motorcycle evehicle custom1 custom2" speed="15.28" length="14.66" shape="421.75,343.78 424.80,340.28 426.86,337.65 429.28,335.70 433.46,334.21"/>
    </edge>
    <edge id=":213011533_2" function="internal">
        <lane id=":213011533_2_0" index="0" disallow="tram rail_urban rail rail_electric rail_fast ship" speed="16.67" length="14.55" shape="419.88,340.33 434.21,337.32"/>
        <lane id=":213011533_2_1" index="1" disallow="tram rail_urban rail rail_electric rail_fast ship" speed="16.67" length="14.55" shape="419.23,337.19 433.46,334.21"/>
        <lane id=":213011533_2_2" index="2" disallow="tram rail_urban rail rail_electric rail_fast ship" speed="16.67" length="14.55" shape="418.57,334.06 432.72,331.10"/>
    </edge>
    <edge id=":229185026_0" function="internal">
        <lane id=":229185026_0_0" index="0" allow="private emergency authority army vip passenger hov taxi bus coach delivery truck trailer motorcycle evehicle custom1 custom2" speed="15.28" length="20.25" shape="467.87,303.40 461.41,304.54 456.16,304.28 451.80,303.26 448.01,302.13"/>
    </edge>
    <edge id=":229185026_1" function="internal">
        <lane id=":229185026_1_0" index="0" disallow="tram rail_urban rail rail_electric rail_fast ship" speed="16.67" length="20.31" shape="467.87,303.40 448.26,307.28"/>
        <lane id=":229185026_1_1" index="1" disallow="tram rail_urban rail rail_electric rail_fast ship" speed="16.67" length="20.31" shape="468.76,306.47 448.99,310.39"/>
        <lane id=":229185026_1_2" index="2" disallow="tram rail_urban rail rail_electric rail_fast ship" speed="16.67" length="20.31" shape="469.64,309.55 449.72,313.51"/>
        <lane id=":229185026_1_3" index="3" disallow="tram rail_urban rail rail_electric rail_fast ship" speed="16.67" length="20.31" shape="470.52,312.62 450.45,316.62"/>
        <lane id=":229185026_1_4" index="4" disallow="tram rail_urban rail rail_electric rail_fast ship" speed="16.67" length="20.31" shape="471.40,315.70 451.18,319.74"/>
    </edge>
    <edge id=":229213176_0" function="internal">
        <lane id=":229213176_0_0" index="0" allow="private emergency authority army vip passenger hov taxi bus coach delivery truck trailer motorcycle evehicle custom1 custom2" speed="15.25" length="14.44" shape="218.53,388.43 222.95,387.83 226.32,388.23 229.28,389.28 232.46,390.63"/>
    </edge>
    <edge id=":229213176_1" function="internal">
        <lane id=":229213176_1_0" index="0" disallow="tram rail_urban rail rail_electric rail_fast ship" speed="19.44" length="14.52" shape="218.53,388.43 232.66,385.12"/>
        <lane id=":229213176_1_1" index="1" disallow="tram rail_urban rail rail_electric rail_fast ship" speed="19.44" length="14.52" shape="217.79,385.32 231.92,382.01"/>
        <lane id=":229213176_1_2" index="2" disallow="tram rail_urban rail rail_electric rail_fast ship" speed="19.44" length="14.52" shape="217.05,382.20 231.19,378.89"/>
        <lane id=":229213176_1_3" index="3" disallow="tram rail_urban rail rail_electric rail_fast ship" speed="19.44" length="14.52" shape="216.31,379.09 230.46,375.78"/>
        <lane id=":229213176_1_4" index="4" disallow="tram rail_urban rail rail_electric rail_fast ship" speed="19.44" length="14.52" shape="215.57,375.98 229.72,372.66"/>
    </edge>
    <edge id=":229213304_0" function="internal">
        <lane id=":229213304_0_0" index="0" allow="private emergency authority army vip passenger hov taxi bus coach delivery truck trailer motorcycle evehicle custom1 custom2" speed="13.89" length="5.81" shape="299.73,450.01 299.60,451.73 299.85,452.92 300.13,454.12 300.11,455.85"/>
        <lane id=":229213304_0_1" index="1" allow="private emergency authority army vip passenger hov taxi bus coach delivery truck trailer motorcycle evehicle custom1 custom2" speed="13.89" length="5.81" shape="302.86,450.65 302.75,452.30 303.00,453.45 303.30,454.61 303.28,456.28"/>
    </edge>
    <edge id=":229213304_2" function="internal">
        <lane id=":229213304_2_0" index="0" allow="private emergency authority army vip passenger hov taxi bus coach delivery truck trailer motorcycle evehicle custom1 custom2" speed="7.57" length="4.90" shape="295.59,450.93 296.43,452.10 296.90,453.01 297.06,454.00 296.94,455.42"/>
    </edge>
    <edge id=":229213346_0" function="internal">
        <lane id=":229213346_0_0" index="0" allow="private emergency authority army vip passenger hov taxi bus coach delivery truck trailer motorcycle evehicle custom1 custom2" speed="13.89" length="7.86" shape="289.04,543.40 288.43,545.63 287.68,547.08 286.97,548.54 286.53,550.79"/>
    </edge>
    <edge id=":229213555_0" function="internal">
        <lane id=":229213555_0_0" index="0" allow="private emergency authority army vip passenger hov taxi bus coach delivery truck trailer motorcycle evehicle custom1 custom2" speed="13.89" length="16.52" shape="387.73,232.59 386.37,229.31 385.02,226.04 383.82,222.11 382.92,216.87"/>
    </edge>
    <edge id=":229213555_1" function="internal">
        <lane id=":229213555_1_0" index="0" allow="private emergency authority army vip passenger hov taxi bus coach delivery truck trailer motorcycle evehicle custom1 custom2" speed="13.89" length="16.49" shape="383.38,233.47 382.92,216.87"/>
        <lane id=":229213555_1_1" index="1" allow="private emergency authority army vip passenger hov taxi bus coach delivery truck trailer motorcycle evehicle custom1 custom2" speed="13.89" length="16.49" shape="380.18,233.59 379.74,217.23"/>
    </edge>
    <edge id=":229213584_0" function="internal">
        <lane id=":229213584_0_0" index="0" allow="private emergency authority army vip passenger hov taxi bus coach delivery truck trailer motorcycle evehicle custom1 custom2" speed="13.89" length="8.21" shape="377.15,194.54 377.12,192.13 377.49,190.48 377.87,188.83 377.87,186.41"/>
    </edge>
    <edge id=":229213705_0" function="internal">
        <lane id=":229213705_0_0" index="0" allow="private emergency authority army vip passenger hov taxi bus coach delivery truck trailer motorcycle evehicle custom1 custom2" speed="13.89" length="8.19" shape="313.85,175.25 313.23,177.59 312.44,179.10 311.67,180.61 311.10,182.96"/>
        <lane id=":229213705_0_1" index="1" allow="private emergency authority army vip passenger hov taxi bus coach delivery truck trailer motorcycle evehicle custom1 custom2" speed="13.89" length="8.19" shape="317.01,175.75 316.39,178.07 315.61,179.57 314.84,181.07 314.27,183.39"/>
        <lane id=":229213705_0_2" index="2" allow="private emergency authority army vip passenger hov taxi bus coach delivery truck trailer motorcycle evehicle custom1 custom2" speed="13.89" length="8.19" shape="317.01,175.75 316.89,178.13 317.19,179.78 317.51,181.44 317.44,183.83"/>
    </edge>
    <edge id=":229213737_0" function="internal">
        <lane id=":229213737_0_0" index="0" allow="private emergency authority army vip passenger hov taxi bus coach delivery truck trailer motorcycle evehicle custom1 custom2" speed="13.89" length="8.14" shape="308.63,200.86 308.06,203.11 307.29,204.56 306.49,206.00 305.83,208.24"/>
        <lane id=":229213737_0_1" index="1" allow="private emergency authority army vip passenger hov taxi bus coach delivery truck trailer motorcycle evehicle custom1 custom2" speed="13.89" length="8.14" shape="311.80,201.29 311.23,203.59 310.45,205.06 309.65,206.53 308.98,208.81"/>
        <lane id=":229213737_0_2" index="2" allow="private emergency authority army vip passenger hov taxi bus coach delivery truck trailer motorcycle evehicle custom1 custom2" speed="13.89" length="8.14" shape="314.97,201.73 314.39,204.07 313.61,205.57 312.80,207.06 312.13,209.39"/>
        <lane id=":229213737_0_3" index="3" allow="private emergency authority army vip passenger hov taxi bus coach delivery truck trailer motorcycle evehicle custom1 custom2" speed="13.89" length="8.14" shape="314.97,201.73 314.88,204.17 315.19,205.86 315.46,207.54 315.27,209.96"/>
    </edge>
    <edge id=":229213794_0" function="internal">
        <lane id=":229213794_0_0" index="0" allow="private emergency authority army vip passenger hov taxi bus coach delivery truck trailer motorcycle evehicle custom1 custom2" speed="13.89" length="14.00" shape="300.54,237.32 300.23,241.71 300.66,245.04 301.07,247.99 300.68,251.23"/>
    </edge>
    <edge id=":229213794_1" function="internal">
        <lane id=":229213794_1_0" index="0" allow="private emergency authority army vip passenger hov taxi bus coach delivery truck trailer motorcycle evehicle custom1 custom2" speed="13.89" length="13.86" shape="303.69,237.89 303.17,241.93 303.30,244.74 303.78,247.55 304.36,251.64"/>
        <lane id=":229213794_1_1" index="1" allow="private emergency authority army vip passenger hov taxi bus coach delivery truck trailer motorcycle evehicle custom1 custom2" speed="13.89" length="12.96" shape="306.84,238.47 306.37,242.24 306.51,244.86 306.99,247.49 307.54,251.31"/>
        <lane id=":229213794_1_2" index="2" allow="private emergency authority army vip passenger hov taxi bus coach delivery truck trailer motorcycle evehicle custom1 custom2" speed="13.89" length="12.06" shape="309.98,239.04 309.56,242.55 309.72,244.99 310.20,247.43 310.72,250.98"/>
    </edge>
    <edge id=":229213903_0" function="internal">
        <lane id=":229213903_0_0" index="0" allow="private emergency authority army vip passenger hov taxi bus coach delivery truck trailer motorcycle evehicle custom1 custom2" speed="13.48" length="9.25" shape="246.58,350.45 244.67,352.45 243.36,353.93 241.85,355.00 239.31,355.78"/>
    </edge>
    <edge id=":229213903_1" function="internal">
        <lane id=":229213903_1_0" index="0" disallow="tram rail_urban rail rail_electric rail_fast ship" speed="19.44" length="9.25" shape="248.35,353.91 239.31,355.78"/>
        <lane id=":229213903_1_1" index="1" disallow="tram rail_urban rail rail_electric rail_fast ship" speed="19.44" length="9.25" shape="249.00,357.04 239.94,358.92"/>
        <lane id=":229213903_1_2" index="2" disallow="tram rail_urban rail rail_electric rail_fast ship" speed="19.44" length="9.25" shape="249.64,360.18 240.57,362.05"/>
    </edge>
    <edge id=":229214266_0" function="internal">
        <lane id=":229214266_0_0" index="0" allow="private emergency authority army vip passenger hov taxi bus coach delivery truck trailer motorcycle evehicle custom1 custom2" speed="13.89" length="33.64" shape="381.74,461.76 383.83,451.07 385.40,442.84 386.91,435.88 388.79,429.04"/>
        <lane id=":229214266_0_1" index="1" allow="private emergency authority army vip passenger hov taxi bus coach delivery truck trailer motorcycle evehicle custom1 custom2" speed="13.89" length="33.64" shape="378.61,461.13 380.72,450.32 382.32,441.99 383.84,434.96 385.73,428.10"/>
    </edge>
    <edge id=":229214266_2" function="internal">
        <lane id=":229214266_2_0" index="0" allow="private emergency authority army vip passenger hov taxi bus coach delivery truck trailer motorcycle evehicle custom1 custom2" speed="13.89" length="26.44" shape="378.61,461.13 379.80,453.42 379.87,448.06 379.44,442.65 379.15,434.80"/>
        <lane id=":229214266_2_1" index="1" allow="private emergency authority army vip passenger hov taxi bus coach delivery truck trailer motorcycle evehicle custom1 custom2" speed="13.89" length="25.71" shape="375.47,460.49 376.62,453.00 376.67,447.79 376.24,442.53 375.95,434.89"/>
        <lane id=":229214266_2_2" index="2" allow="private emergency authority army vip passenger hov taxi bus coach delivery truck trailer motorcycle evehicle custom1 custom2" speed="13.89" length="24.98" shape="372.34,459.86 373.44,452.58 373.47,447.51 373.04,442.40 372.75,434.98"/>
    </edge>
    <edge id=":3553409690_0" function="internal">
        <lane id=":3553409690_0_0" index="0" allow="private emergency authority army vip passenger hov taxi bus coach delivery truck trailer motorcycle evehicle custom1 custom2" speed="7.82" length="2.20" shape="325.28,216.06 325.27,216.71 325.31,217.15 325.45,217.58 325.71,218.17"/>
        <lane id=":3553409690_0_1" index="1" allow="private emergency authority army vip passenger hov taxi bus coach delivery truck trailer motorcycle evehicle custom1 custom2" speed="18.05" length="0.67" shape="328.48,216.17 328.47,216.37 328.49,216.50 328.53,216.63 328.61,216.81"/>
    </edge>
    <edge id=":3553409690_2" function="internal">
        <lane id=":3553409690_2_0" index="0" allow="private emergency authority army vip passenger hov taxi bus coach delivery truck trailer motorcycle evehicle custom1 custom2" speed="22.22" length="2.29" shape="331.68,216.29 330.14,214.58"/>
        <lane id=":3553409690_2_1" index="1" allow="private emergency authority army vip passenger hov taxi bus coach delivery truck trailer motorcycle evehicle custom1 custom2" speed="22.22" length="2.29" shape="334.87,216.40 333.34,214.70"/>
        <lane id=":3553409690_2_2" index="2" allow="private emergency authority army vip passenger hov taxi bus coach delivery truck trailer motorcycle evehicle custom1 custom2" speed="22.22" length="2.29" shape="338.07,216.52 336.54,214.82"/>
        <lane id=":3553409690_2_3" index="3" allow="private emergency authority army vip passenger hov taxi bus coach delivery truck trailer motorcycle evehicle custom1 custom2" speed="22.22" length="2.29" shape="341.27,216.63 339.73,214.94"/>
    </edge>
    <edge id=":3884230127_0" function="internal">
        <lane id=":3884230127_0_0" index="0" disallow="tram rail_urban rail rail_electric rail_fast ship" speed="19.44" length="8.21" shape="214.07,364.09 211.67,364.31 209.99,364.09 208.31,363.86 205.91,364.08"/>
        <lane id=":3884230127_0_1" index="1" disallow="tram rail_urban rail rail_electric rail_fast ship" speed="19.44" length="8.21" shape="214.70,367.22 212.30,367.45 210.62,367.22 208.94,367.00 206.54,367.22"/>
    </edge>
    <edge id=":4712168400_0" function="internal">
        <lane id=":4712168400_0_0" index="0" disallow="tram rail_urban rail rail_electric rail_fast ship" speed="16.67" length="8.65" shape="508.10,295.19 505.60,295.39 503.81,294.76 502.03,294.12 499.53,294.32"/>
        <lane id=":4712168400_0_1" index="1" disallow="tram rail_urban rail rail_electric rail_fast ship" speed="16.67" length="8.65" shape="508.98,298.26 506.48,298.46 504.70,297.83 502.92,297.20 500.41,297.40"/>
        <lane id=":4712168400_0_2" index="2" disallow="tram rail_urban rail rail_electric rail_fast ship" speed="16.67" length="8.65" shape="509.87,301.34 507.37,301.54 505.58,300.91 503.80,300.27 501.29,300.47"/>
        <lane id=":4712168400_0_3" index="3" disallow="tram rail_urban rail rail_electric rail_fast ship" speed="16.67" length="8.65" shape="509.87,301.34 502.18,303.55"/>
        <lane id=":4712168400_0_4" index="4" disallow="tram rail_urban rail rail_electric rail_fast ship" speed="16.67" length="8.65" shape="509.87,301.34 507.64,302.50 506.47,303.98 505.29,305.46 503.06,306.62"/>
    </edge>
    <edge id=":4837890250_0" function="internal">
        <lane id=":4837890250_0_0" index="0" allow="private emergency authority army vip passenger hov taxi bus coach delivery truck trailer motorcycle evehicle custom1 custom2" speed="13.89" length="8.21" shape="370.13,511.23 370.83,508.93 371.68,507.47 372.53,506.01 373.25,503.72"/>
        <lane id=":4837890250_0_1" index="1" allow="private emergency authority army vip passenger hov taxi bus coach delivery truck trailer motorcycle evehicle custom1 custom2" speed="13.89" length="8.21" shape="366.99,510.62 367.69,508.31 368.54,506.85 369.39,505.39 370.11,503.09"/>
        <lane id=":4837890250_0_2" index="2" allow="private emergency authority army vip passenger hov taxi bus coach delivery truck trailer motorcycle evehicle custom1 custom2" speed="13.89" length="8.21" shape="363.85,510.01 364.55,507.70 365.40,506.23 366.25,504.76 366.98,502.45"/>
        <lane id=":4837890250_0_3" index="3" allow="private emergency authority army vip passenger hov taxi bus coach delivery truck trailer motorcycle evehicle custom1 custom2" speed="13.89" length="8.21" shape="363.85,510.01 364.06,507.60 363.83,505.91 363.61,504.23 363.84,501.82"/>
    </edge>
    <edge id=":6806121529_0" function="internal">
        <lane id=":6806121529_0_0" index="0" disallow="tram rail_urban rail rail_electric rail_fast ship" speed="19.44" length="8.21" shape="153.11,399.65 155.50,399.30 157.19,399.43 158.88,399.57 161.26,399.21"/>
        <lane id=":6806121529_0_1" index="1" disallow="tram rail_urban rail rail_electric rail_fast ship" speed="19.44" length="8.21" shape="152.32,396.55 154.70,396.20 156.39,396.33 158.08,396.47 160.46,396.11"/>
        <lane id=":6806121529_0_2" index="2" disallow="tram rail_urban rail rail_electric rail_fast ship" speed="19.44" length="8.21" shape="152.32,396.55 154.58,395.71 155.99,394.78 157.41,393.85 159.67,393.02"/>
    </edge>
    <edge id=":6812369232_0" function="internal">
        <lane id=":6812369232_0_0" index="0" allow="private emergency authority army vip passenger hov taxi bus coach delivery truck trailer motorcycle evehicle custom1 custom2" speed="13.89" length="8.02" shape="363.67,537.43 364.20,535.20 364.97,533.78 365.77,532.36 366.45,530.16"/>
        <lane id=":6812369232_0_1" index="1" allow="private emergency authority army vip passenger hov taxi bus coach delivery truck trailer motorcycle evehicle custom1 custom2" speed="13.89" length="8.02" shape="360.49,537.03 361.04,534.74 361.81,533.27 362.62,531.82 363.31,529.55"/>
        <lane id=":6812369232_0_2" index="2" allow="private emergency authority army vip passenger hov taxi bus coach delivery truck trailer motorcycle evehicle custom1 custom2" speed="13.89" length="8.02" shape="360.49,537.03 360.55,534.63 360.23,532.97 359.97,531.31 360.17,528.94"/>
    </edge>
    <edge id=":7237853650_0" function="internal">
        <lane id=":7237853650_0_0" index="0" disallow="tram rail_urban rail rail_electric rail_fast ship" speed="19.44" length="8.64" shape="181.26,394.07 183.74,393.95 185.47,394.65 187.21,395.36 189.69,395.28"/>
        <lane id=":7237853650_0_1" index="1" disallow="tram rail_urban rail rail_electric rail_fast ship" speed="19.44" length="8.64" shape="180.46,390.97 182.96,390.85 184.70,391.54 186.45,392.25 188.95,392.17"/>
        <lane id=":7237853650_0_2" index="2" disallow="tram rail_urban rail rail_electric rail_fast ship" speed="19.44" length="8.64" shape="179.67,387.87 182.18,387.75 183.93,388.44 185.70,389.14 188.21,389.06"/>
        <lane id=":7237853650_0_3" index="3" disallow="tram rail_urban rail rail_electric rail_fast ship" speed="19.44" length="8.64" shape="179.67,387.87 187.47,385.94"/>
        <lane id=":7237853650_0_4" index="4" disallow="tram rail_urban rail rail_electric rail_fast ship" speed="19.44" length="8.64" shape="179.67,387.87 181.95,386.77 183.19,385.32 184.44,383.89 186.73,382.83"/>
    </edge>
    <edge id=":7237853651_0" function="internal">
        <lane id=":7237853651_0_0" index="0" allow="private emergency authority army vip passenger hov taxi bus coach delivery truck trailer motorcycle evehicle custom1 custom2" speed="13.89" length="8.21" shape="296.84,479.94 296.27,482.28 295.51,483.79 294.74,485.30 294.16,487.64"/>
        <lane id=":7237853651_0_1" index="1" allow="private emergency authority army vip passenger hov taxi bus coach delivery truck trailer motorcycle evehicle custom1 custom2" speed="13.89" length="8.21" shape="300.01,480.37 299.44,482.71 298.68,484.23 297.91,485.74 297.33,488.08"/>
    </edge>
    <edge id=":7265049728_0" function="internal">
        <lane id=":7265049728_0_0" index="0" allow="private emergency authority army vip passenger hov taxi bus coach delivery truck trailer motorcycle evehicle custom1 custom2" speed="13.89" length="8.19" shape="319.22,150.89 318.64,153.21 317.87,154.71 317.09,156.21 316.47,158.54"/>
        <lane id=":7265049728_0_1" index="1" allow="private emergency authority army vip passenger hov taxi bus coach delivery truck trailer motorcycle evehicle custom1 custom2" speed="13.89" length="8.19" shape="319.22,150.89 319.14,153.30 319.45,154.96 319.76,156.63 319.63,159.03"/>
    </edge>
    <edge id=":778458664-AddedOffRampNode_0" function="internal">
        <lane id=":778458664-AddedOffRampNode_0_0" index="0" allow="private emergency authority army vip passenger hov taxi bus coach delivery truck trailer motorcycle evehicle custom1 custom2" speed="22.22" length="8.13" shape="333.25,112.89 332.62,115.32 331.44,116.80 330.26,118.28 329.63,120.71"/>
        <lane id=":778458664-AddedOffRampNode_0_1" index="1" allow="private emergency authority army vip passenger hov taxi bus coach delivery truck trailer motorcycle evehicle custom1 custom2" speed="22.22" length="8.13" shape="333.25,112.89 332.82,120.88"/>
        <lane id=":778458664-AddedOffRampNode_0_2" index="2" allow="private emergency authority army vip passenger hov taxi bus coach delivery truck trailer motorcycle evehicle custom1 custom2" speed="22.22" length="8.13" shape="336.45,113.06 336.02,121.05"/>
        <lane id=":778458664-AddedOffRampNode_0_3" index="3" allow="private emergency authority army vip passenger hov taxi bus coach delivery truck trailer motorcycle evehicle custom1 custom2" speed="22.22" length="8.13" shape="339.65,113.23 339.21,121.22"/>
        <lane id=":778458664-AddedOffRampNode_0_4" index="4" allow="private emergency authority army vip passenger hov taxi bus coach delivery truck trailer motorcycle evehicle custom1 custom2" speed="22.22" length="8.13" shape="342.84,113.41 342.41,121.39"/>
        <lane id=":778458664-AddedOffRampNode_0_5" index="5" allow="private emergency authority army vip passenger hov taxi bus coach delivery truck trailer motorcycle evehicle custom1 custom2" speed="22.22" length="8.13" shape="346.04,113.58 345.60,121.56"/>
    </edge>
    <edge id=":cluster_440531203_440531204_6103751703_6103751704_0" function="internal">
        <lane id=":cluster_440531203_440531204_6103751703_6103751704_0_0" index="0" disallow="tram rail_urban rail rail_electric rail_fast ship" speed="18.05" length="48.78" shape="362.35,326.60 315.51,340.15"/>
        <lane id=":cluster_440531203_440531204_6103751703_6103751704_0_1" index="1" disallow="tram rail_urban rail rail_electric rail_fast ship" speed="18.05" length="48.78" shape="363.01,329.74 316.15,343.28"/>
        <lane id=":cluster_440531203_440531204_6103751703_6103751704_0_2" index="2" disallow="tram rail_urban rail rail_electric rail_fast ship" speed="18.05" length="48.78" shape="363.67,332.87 316.79,346.42"/>
    </edge>
    <edge id=":cluster_440531203_440531204_6103751703_6103751704_3" function="internal">
        <lane id=":cluster_440531203_440531204_6103751703_6103751704_3_0" index="0" allow="private emergency authority army vip passenger hov taxi bus coach delivery truck trailer motorcycle evehicle custom1 custom2" speed="15.28" length="26.31" shape="364.33,336.00 353.31,340.14 343.48,347.31 341.94,349.12"/>
    </edge>
    <edge id=":cluster_440531203_440531204_6103751703_6103751704_4" function="internal">
        <lane id=":cluster_440531203_440531204_6103751703_6103751704_4_0" index="0" disallow="tram rail_urban rail rail_electric rail_fast ship" speed="4.62" length="5.52" shape="364.99,339.13 363.08,341.08 362.65,342.71 363.33,343.57"/>
    </edge>
    <edge id=":cluster_440531203_440531204_6103751703_6103751704_20" function="internal">