<?xml version="1.0" encoding="UTF-8"?>

<!-- generated on 2023-07-17 14:40:02 by Eclipse SUMO netconvert Version 1.17.0
<configuration xmlns:xsi="http://www.w3.org/2001/XMLSchema-instance" xsi:noNamespaceSchemaLocation="http://sumo.dlr.de/xsd/netconvertConfiguration.xsd">

    <input>
        <sumo-net-file value="osm.net.xml.gz"/>
    </input>

    <output>
        <output-file value="osm.net.xml"/>
        <output.street-names value="true"/>
    </output>

    <processing>
        <geometry.min-radius.fix.railways value="false"/>
        <geometry.max-grade.fix value="false"/>
        <offset.disable-normalization value="true"/>
        <lefthand value="0"/>
    </processing>

    <junctions>
        <no-turnarounds value="true"/>
        <junctions.corner-detail value="5"/>
        <junctions.limit-turn-speed value="5.50"/>
        <rectangular-lane-cut value="0"/>
    </junctions>

    <pedestrian>
        <walkingareas value="0"/>
    </pedestrian>

</configuration>
-->

<net version="1.16" junctionCornerDetail="5" limitTurnSpeed="5.50" xmlns:xsi="http://www.w3.org/2001/XMLSchema-instance" xsi:noNamespaceSchemaLocation="http://sumo.dlr.de/xsd/net_file.xsd">

    <location netOffset="-369160.48,-145877.66" convBoundary="0.00,0.00,417.91,287.09" origBoundary="103.823951,1.319520,103.827707,1.322116" projParameter="+proj=utm +zone=48 +ellps=WGS84 +datum=WGS84 +units=m +no_defs"/>

    <type id="highway.bridleway" priority="1" numLanes="1" speed="2.78" allow="pedestrian" oneway="1" width="2.00"/>
    <type id="highway.bus_guideway" priority="1" numLanes="1" speed="27.78" allow="bus" oneway="1"/>
    <type id="highway.cycleway" priority="1" numLanes="1" speed="5.56" allow="bicycle" oneway="0" width="1.00"/>
    <type id="highway.footway" priority="1" numLanes="1" speed="2.78" allow="pedestrian" oneway="1" width="2.00"/>
    <type id="highway.ford" priority="1" numLanes="1" speed="2.78" allow="army" oneway="0"/>
    <type id="highway.living_street" priority="2" numLanes="1" speed="2.78" disallow="tram rail_urban rail rail_electric rail_fast ship" oneway="0"/>
    <type id="highway.motorway" priority="14" numLanes="2" speed="39.44" allow="private emergency authority army vip passenger hov taxi bus coach delivery truck trailer motorcycle evehicle custom1 custom2" oneway="1"/>
    <type id="highway.motorway_link" priority="9" numLanes="1" speed="22.22" allow="private emergency authority army vip passenger hov taxi bus coach delivery truck trailer motorcycle evehicle custom1 custom2" oneway="1"/>
    <type id="highway.path" priority="1" numLanes="1" speed="5.56" allow="pedestrian bicycle" oneway="0" width="2.00"/>
    <type id="highway.pedestrian" priority="1" numLanes="1" speed="2.78" allow="pedestrian" oneway="1" width="2.00"/>
    <type id="highway.primary" priority="12" numLanes="2" speed="27.78" disallow="tram rail_urban rail rail_electric rail_fast ship" oneway="0"/>
    <type id="highway.primary_link" priority="7" numLanes="1" speed="22.22" disallow="tram rail_urban rail rail_electric rail_fast ship" oneway="0"/>
    <type id="highway.raceway" priority="15" numLanes="2" speed="83.33" allow="vip" oneway="0"/>
    <type id="highway.residential" priority="3" numLanes="1" speed="13.89" disallow="tram rail_urban rail rail_electric rail_fast ship" oneway="0"/>
    <type id="highway.secondary" priority="11" numLanes="1" speed="27.78" disallow="tram rail_urban rail rail_electric rail_fast ship" oneway="0"/>
    <type id="highway.secondary_link" priority="6" numLanes="1" speed="22.22" disallow="tram rail_urban rail rail_electric rail_fast ship" oneway="0"/>
    <type id="highway.service" priority="1" numLanes="1" speed="5.56" allow="pedestrian delivery bicycle" oneway="0"/>
    <type id="highway.stairs" priority="1" numLanes="1" speed="1.39" allow="pedestrian" oneway="1" width="2.00"/>
    <type id="highway.step" priority="1" numLanes="1" speed="1.39" allow="pedestrian" oneway="1" width="2.00"/>
    <type id="highway.steps" priority="1" numLanes="1" speed="1.39" allow="pedestrian" oneway="1" width="2.00"/>
    <type id="highway.tertiary" priority="10" numLanes="1" speed="22.22" disallow="tram rail_urban rail rail_electric rail_fast ship" oneway="0"/>
    <type id="highway.tertiary_link" priority="5" numLanes="1" speed="22.22" disallow="tram rail_urban rail rail_electric rail_fast ship" oneway="0"/>
    <type id="highway.track" priority="1" numLanes="1" speed="5.56" allow="pedestrian motorcycle moped bicycle" oneway="0"/>
    <type id="highway.trunk" priority="13" numLanes="2" speed="27.78" disallow="pedestrian bicycle tram rail_urban rail rail_electric rail_fast ship" oneway="0"/>
    <type id="highway.trunk_link" priority="8" numLanes="1" speed="22.22" disallow="pedestrian bicycle tram rail_urban rail rail_electric rail_fast ship" oneway="0"/>
    <type id="highway.unclassified" priority="4" numLanes="1" speed="13.89" disallow="tram rail_urban rail rail_electric rail_fast ship" oneway="0"/>
    <type id="highway.unsurfaced" priority="1" numLanes="1" speed="8.33" disallow="tram rail_urban rail rail_electric rail_fast ship" oneway="0"/>
    <type id="railway.highspeed" priority="21" numLanes="1" speed="69.44" allow="rail_fast" oneway="1"/>
    <type id="railway.light_rail" priority="19" numLanes="1" speed="27.78" allow="rail_urban" oneway="1"/>
    <type id="railway.preserved" priority="16" numLanes="1" speed="27.78" allow="rail" oneway="1"/>
    <type id="railway.rail" priority="20" numLanes="1" speed="44.44" allow="rail" oneway="1"/>
    <type id="railway.subway" priority="18" numLanes="1" speed="27.78" allow="rail_urban" oneway="1"/>
    <type id="railway.tram" priority="17" numLanes="1" speed="13.89" allow="tram" oneway="1"/>

    <edge id=":4738838456_0" function="internal">
        <lane id=":4738838456_0_0" index="0" disallow="tram rail_urban rail rail_electric rail_fast ship" speed="16.67" length="9.44" shape="159.14,75.44 158.94,78.00 159.19,79.77 159.54,81.55 159.66,84.15"/>
        <lane id=":4738838456_0_1" index="1" disallow="tram rail_urban rail rail_electric rail_fast ship" speed="16.67" length="9.44" shape="155.98,74.92 155.76,77.61 156.00,79.47 156.34,81.35 156.46,84.07"/>
        <lane id=":4738838456_0_2" index="2" disallow="tram rail_urban rail rail_electric rail_fast ship" speed="16.67" length="9.44" shape="152.83,74.39 152.59,77.22 152.81,79.17 153.15,81.14 153.26,84.00"/>
        <lane id=":4738838456_0_3" index="3" disallow="tram rail_urban rail rail_electric rail_fast ship" speed="16.67" length="9.44" shape="149.67,73.87 149.41,76.83 149.62,78.87 149.95,80.93 150.06,83.93"/>
    </edge>
    <edge id=":4738838456_4" function="internal">
        <lane id=":4738838456_4_0" index="0" disallow="pedestrian bicycle tram rail_urban rail rail_electric rail_fast ship" speed="15.28" length="11.57" shape="149.67,73.87 148.93,77.29 148.02,79.64 146.81,81.73 145.14,84.39"/>
    </edge>
    <edge id=":4738838459_0" function="internal">
        <lane id=":4738838459_0_0" index="0" disallow="pedestrian bicycle tram rail_urban rail rail_electric rail_fast ship" speed="13.89" length="15.71" shape="135.30,109.76 120.45,115.09"/>
        <lane id=":4738838459_0_1" index="1" disallow="pedestrian bicycle tram rail_urban rail rail_electric rail_fast ship" speed="13.89" length="15.71" shape="134.21,106.75 119.48,112.04"/>
    </edge>
    <edge id=":4738838459_2" function="internal">
        <lane id=":4738838459_2_0" index="0" disallow="pedestrian bicycle tram rail_urban rail rail_electric rail_fast ship" speed="13.89" length="15.57" shape="131.56,102.63 129.22,105.28 126.94,107.80 123.95,110.09 119.48,112.04"/>
    </edge>
    <edge id=":4739900216_0" function="internal">
        <lane id=":4739900216_0_0" index="0" disallow="tram rail_urban rail rail_electric rail_fast ship" speed="19.44" length="16.30" shape="176.10,187.98 177.24,192.62 177.58,195.91 178.00,199.18 179.34,203.75"/>
        <lane id=":4739900216_0_1" index="1" disallow="tram rail_urban rail rail_electric rail_fast ship" speed="19.44" length="16.30" shape="173.05,188.95 174.20,193.63 174.56,196.95 174.98,200.25 176.34,204.86"/>
        <lane id=":4739900216_0_2" index="2" disallow="tram rail_urban rail rail_electric rail_fast ship" speed="19.44" length="16.30" shape="170.00,189.92 171.17,194.64 171.53,198.00 171.96,201.32 173.34,205.98"/>
    </edge>
    <edge id=":4739900216_3" function="internal">
        <lane id=":4739900216_3_0" index="0" disallow="pedestrian bicycle tram rail_urban rail rail_electric rail_fast ship" speed="14.63" length="17.52" shape="162.36,194.06 165.99,195.54 169.87,197.21 173.49,200.00 176.34,204.86"/>
        <lane id=":4739900216_3_1" index="1" disallow="pedestrian bicycle tram rail_urban rail rail_electric rail_fast ship" speed="13.96" length="17.52" shape="162.36,194.06 165.56,195.81 168.46,198.02 171.06,201.23 173.34,205.98"/>
    </edge>
    <edge id=":4739902969_0" function="internal">
        <lane id=":4739902969_0_0" index="0" disallow="tram rail_urban rail rail_electric rail_fast ship" speed="19.44" length="4.97" shape="180.73,184.97 180.34,183.62 180.22,182.65 180.14,181.68 179.90,180.28"/>
        <lane id=":4739902969_0_1" index="1" disallow="tram rail_urban rail rail_electric rail_fast ship" speed="19.44" length="4.97" shape="183.74,183.88 183.34,182.49 183.22,181.50 183.15,180.50 182.90,179.06"/>
        <lane id=":4739902969_0_2" index="2" disallow="tram rail_urban rail rail_electric rail_fast ship" speed="19.44" length="4.97" shape="186.75,182.79 186.34,181.37 186.22,180.35 186.15,179.32 185.90,177.85"/>
        <lane id=":4739902969_0_3" index="3" disallow="tram rail_urban rail rail_electric rail_fast ship" speed="19.44" length="4.97" shape="189.76,181.70 189.34,180.24 189.22,179.20 189.16,178.14 188.90,176.63"/>
    </edge>
    <edge id=":4739902969_4" function="internal">
        <lane id=":4739902969_4_0" index="0" disallow="pedestrian bicycle tram rail_urban rail rail_electric rail_fast ship" speed="9.85" length="5.00" shape="192.77,180.61 192.35,179.22 192.26,178.20 192.43,177.18 192.76,175.73"/>
    </edge>
    <edge id=":4739902972_0" function="internal">
        <lane id=":4739902972_0_0" index="0" disallow="pedestrian bicycle tram rail_urban rail rail_electric rail_fast ship" speed="13.89" length="13.71" shape="190.98,162.77 204.01,158.04"/>
        <lane id=":4739902972_0_1" index="1" disallow="pedestrian bicycle tram rail_urban rail rail_electric rail_fast ship" speed="13.89" length="13.71" shape="192.23,165.72 204.98,161.09"/>
    </edge>
    <edge id=":4739902972_2" function="internal">
        <lane id=":4739902972_2_0" index="0" disallow="pedestrian bicycle tram rail_urban rail rail_electric rail_fast ship" speed="13.89" length="15.23" shape="193.96,170.97 195.84,167.98 197.85,165.30 200.66,162.99 204.98,161.09"/>
    </edge>
    <edge id=":5136059520_0" function="internal">
        <lane id=":5136059520_0_0" index="0" disallow="pedestrian bicycle tram rail_urban rail rail_electric rail_fast ship" speed="13.89" length="15.43" shape="116.62,184.75 121.04,183.62 124.20,183.40 127.38,183.22 131.84,182.23"/>
        <lane id=":5136059520_0_1" index="1" disallow="pedestrian bicycle tram rail_urban rail rail_electric rail_fast ship" speed="13.89" length="15.43" shape="117.66,187.78 122.05,186.66 125.19,186.44 128.34,186.27 132.78,185.29"/>
    </edge>
    <edge id=":5136059520_2" function="internal">
        <lane id=":5136059520_2_0" index="0" disallow="pedestrian bicycle tram rail_urban rail rail_electric rail_fast ship" speed="13.89" length="15.04" shape="118.69,190.81 123.28,189.49 126.87,188.95 130.07,188.83 133.50,188.82"/>
    </edge>
    <edge id=":cluster_1744512250_1744512264_0" function="internal">
        <lane id=":cluster_1744512250_1744512264_0_0" index="0" disallow="tram rail_urban rail rail_electric rail_fast ship" speed="19.44" length="16.83" shape="179.34,177.91 178.23,173.19 177.52,169.94 176.97,166.67 176.31,161.86"/>
        <lane id=":cluster_1744512250_1744512264_0_1" index="1" disallow="tram rail_urban rail rail_electric rail_fast ship" speed="19.44" length="16.83" shape="182.45,177.18 181.32,172.36 180.62,169.05 180.07,165.71 179.40,160.80"/>
        <lane id=":cluster_1744512250_1744512264_0_2" index="2" disallow="tram rail_urban rail rail_electric rail_fast ship" speed="19.44" length="16.83" shape="185.57,176.45 184.42,171.53 183.72,168.15 183.17,164.74 182.49,159.75"/>
        <lane id=":cluster_1744512250_1744512264_0_3" index="3" disallow="tram rail_urban rail rail_electric rail_fast ship" speed="19.44" length="16.83" shape="188.68,175.72 187.52,170.71 186.81,167.26 186.26,163.78 185.58,158.69"/>
    </edge>
    <edge id=":cluster_1744512250_1744512264_4" function="internal">
        <lane id=":cluster_1744512250_1744512264_4_0" index="0" disallow="pedestrian bicycle tram rail_urban rail rail_electric rail_fast ship" speed="9.81" length="22.13" shape="170.04,164.01 172.08,166.07 176.22,166.56 182.46,165.48 190.79,162.84"/>
    </edge>
    <edge id=":cluster_1744512250_1744512264_5" function="internal">
        <lane id=":cluster_1744512250_1744512264_5_0" index="0" disallow="tram rail_urban rail rail_electric rail_fast ship" speed="19.44" length="15.32" shape="167.02,165.05 173.38,179.31"/>
        <lane id=":cluster_1744512250_1744512264_5_1" index="1" disallow="tram rail_urban rail rail_electric rail_fast ship" speed="19.44" length="15.32" shape="163.99,166.08 165.71,170.28 167.22,173.03 168.68,175.79 170.26,180.04"/>
        <lane id=":cluster_1744512250_1744512264_5_2" index="2" disallow="tram rail_urban rail rail_electric rail_fast ship" speed="19.44" length="15.32" shape="160.96,167.12 162.65,171.23 164.14,173.92 165.58,176.61 167.14,180.77"/>
    </edge>
    <edge id=":cluster_1744512250_1744512264_8" function="internal">
        <lane id=":cluster_1744512250_1744512264_8_0" index="0" disallow="tram rail_urban rail rail_electric rail_fast ship" speed="9.60" length="21.34" shape="157.93,168.16 161.30,155.42 167.02,149.60"/>
    </edge>
    <edge id=":cluster_1744512250_1744512264_9" function="internal">
        <lane id=":cluster_1744512250_1744512264_9_0" index="0" disallow="tram rail_urban rail rail_electric rail_fast ship" speed="19.44" length="14.70" shape="157.93,168.16 159.59,172.18 161.06,174.80 162.48,177.44 164.01,181.50"/>
    </edge>
    <edge id=":cluster_1744512250_1744512264_14" function="internal">
        <lane id=":cluster_1744512250_1744512264_14_0" index="0" disallow="tram rail_urban rail rail_electric rail_fast ship" speed="9.60" length="21.34" shape="167.02,149.60 175.12,150.69 185.58,158.69"/>
    </edge>
    <edge id=":cluster_1744512250_1744512264_10" function="internal">
        <lane id=":cluster_1744512250_1744512264_10_0" index="0" disallow="pedestrian bicycle tram rail_urban rail rail_electric rail_fast ship" speed="11.57" length="26.72" shape="154.40,175.18 164.29,171.66 171.24,168.27 175.25,165.00 176.31,161.86"/>
        <lane id=":cluster_1744512250_1744512264_10_1" index="1" disallow="pedestrian bicycle tram rail_urban rail rail_electric rail_fast ship" speed="12.22" length="29.89" shape="154.40,175.18 165.65,171.23 173.56,167.51 178.15,164.04 179.40,160.80"/>
    </edge>
    <edge id=":cluster_1744512250_1744512264_12" function="internal">
        <lane id=":cluster_1744512250_1744512264_12_0" index="0" disallow="pedestrian bicycle tram rail_urban rail rail_electric rail_fast ship" speed="13.89" length="38.58" shape="154.40,175.18 190.79,162.84"/>
        <lane id=":cluster_1744512250_1744512264_12_1" index="1" disallow="pedestrian bicycle tram rail_urban rail rail_electric rail_fast ship" speed="13.89" length="38.58" shape="155.36,178.23 192.05,165.79"/>
    </edge>
    <edge id=":cluster_1744516446_1744516450_3838321209_3838321212_#2more_0" function="internal">
        <lane id=":cluster_1744516446_1744516450_3838321209_3838321212_#2more_0_0" index="0" disallow="pedestrian bicycle tram rail_urban rail rail_electric rail_fast ship" speed="11.15" length="35.65" shape="172.37,111.03 170.35,105.33 164.59,102.82 155.09,103.50 141.86,107.38"/>
    </edge>
    <edge id=":cluster_1744516446_1744516450_3838321209_3838321212_#2more_1" function="internal">
        <lane id=":cluster_1744516446_1744516450_3838321209_3838321212_#2more_1_0" index="0" disallow="tram rail_urban rail rail_electric rail_fast ship" speed="18.05" length="28.56" shape="172.37,111.03 174.24,82.43"/>
        <lane id=":cluster_1744516446_1744516450_3838321209_3838321212_#2more_1_1" index="1" disallow="tram rail_urban rail rail_electric rail_fast ship" speed="18.05" length="28.56" shape="175.57,110.97 177.44,82.47"/>
        <lane id=":cluster_1744516446_1744516450_3838321209_3838321212_#2more_1_2" index="2" disallow="tram rail_urban rail rail_electric rail_fast ship" speed="18.05" length="28.56" shape="178.77,110.91 180.64,82.51"/>
    </edge>
    <edge id=":cluster_1744516446_1744516450_3838321209_3838321212_#2more_4" function="internal">
        <lane id=":cluster_1744516446_1744516450_3838321209_3838321212_#2more_4_0" index="0" disallow="tram rail_urban rail rail_electric rail_fast ship" speed="10.20" length="25.24" shape="181.97,110.85 173.58,123.97 165.02,128.46"/>
    </edge>
    <edge id=":cluster_1744516446_1744516450_3838321209_3838321212_#2more_16" function="internal">
        <lane id=":cluster_1744516446_1744516450_3838321209_3838321212_#2more_16_0" index="0" disallow="tram rail_urban rail rail_electric rail_fast ship" speed="10.20" length="25.24" shape="165.02,128.46 156.30,124.30 147.41,111.51"/>
    </edge>
    <edge id=":cluster_1744516446_1744516450_3838321209_3838321212_#2more_5" function="internal">
        <lane id=":cluster_1744516446_1744516450_3838321209_3838321212_#2more_5_0" index="0" disallow="pedestrian bicycle tram rail_urban rail rail_electric rail_fast ship" speed="16.66" length="51.16" shape="204.30,87.25 185.26,94.45 171.58,100.86 163.24,106.46 160.26,111.26"/>
        <lane id=":cluster_1744516446_1744516450_3838321209_3838321212_#2more_5_1" index="1" disallow="pedestrian bicycle tram rail_urban rail rail_electric rail_fast ship" speed="16.66" length="53.83" shape="204.30,87.25 183.83,94.89 169.13,101.45 160.20,106.93 157.05,111.33"/>
    </edge>
    <edge id=":cluster_1744516446_1744516450_3838321209_3838321212_#2more_7" function="internal">
        <lane id=":cluster_1744516446_1744516450_3838321209_3838321212_#2more_7_0" index="0" disallow="pedestrian bicycle tram rail_urban rail rail_electric rail_fast ship" speed="13.89" length="65.54" shape="204.30,87.25 141.86,107.38"/>
        <lane id=":cluster_1744516446_1744516450_3838321209_3838321212_#2more_7_1" index="1" disallow="pedestrian bicycle tram rail_urban rail rail_electric rail_fast ship" speed="13.89" length="65.54" shape="203.24,84.23 140.92,104.32"/>
    </edge>
    <edge id=":cluster_1744516446_1744516450_3838321209_3838321212_#2more_9" function="internal">
        <lane id=":cluster_1744516446_1744516450_3838321209_3838321212_#2more_9_0" index="0" disallow="pedestrian bicycle tram rail_urban rail rail_electric rail_fast ship" speed="9.68" length="27.07" shape="202.18,81.21 192.82,84.20 184.89,85.88 179.42,85.54 177.44,82.47"/>
        <lane id=":cluster_1744516446_1744516450_3838321209_3838321212_#2more_9_1" index="1" disallow="pedestrian bicycle tram rail_urban rail rail_electric rail_fast ship" speed="9.05" length="23.48" shape="202.18,81.21 194.03,83.82 187.12,85.31 182.36,85.08 180.64,82.51"/>
    </edge>
    <edge id=":cluster_1744516446_1744516450_3838321209_3838321212_#2more_11" function="internal">
        <lane id=":cluster_1744516446_1744516450_3838321209_3838321212_#2more_11_0" index="0" disallow="tram rail_urban rail rail_electric rail_fast ship" speed="18.05" length="27.20" shape="159.65,84.35 160.26,111.26"/>
        <lane id=":cluster_1744516446_1744516450_3838321209_3838321212_#2more_11_1" index="1" disallow="tram rail_urban rail rail_electric rail_fast ship" speed="18.05" length="27.20" shape="156.45,84.27 157.05,111.33"/>
        <lane id=":cluster_1744516446_1744516450_3838321209_3838321212_#2more_11_2" index="2" disallow="tram rail_urban rail rail_electric rail_fast ship" speed="18.05" length="27.20" shape="153.25,84.20 153.83,111.39"/>
        <lane id=":cluster_1744516446_1744516450_3838321209_3838321212_#2more_11_3" index="3" disallow="tram rail_urban rail rail_electric rail_fast ship" speed="18.05" length="27.20" shape="150.05,84.13 150.62,111.45"/>
        <lane id=":cluster_1744516446_1744516450_3838321209_3838321212_#2more_11_4" index="4" disallow="tram rail_urban rail rail_electric rail_fast ship" speed="18.05" length="27.20" shape="150.05,84.13 147.41,111.51"/>
    </edge>

    <edge id="162589256" from="389449637" to="236507718" name="Bukit Timah Road" priority="13" type="highway.trunk" spreadType="center">
        <lane id="162589256_0" index="0" disallow="pedestrian bicycle tram rail_urban rail rail_electric rail_fast ship" speed="19.44" length="399.77" shape="380.14,42.55 1.01,169.34">
            <param key="origId" value="162589256"/>
        </lane>
        <lane id="162589256_1" index="1" disallow="pedestrian bicycle tram rail_urban rail rail_electric rail_fast ship" speed="19.44" length="399.77" shape="379.13,39.52 -0.00,166.31">
            <param key="origId" value="162589256"/>
        </lane>
        <lane id="162589256_2" index="2" disallow="pedestrian bicycle tram rail_urban rail rail_electric rail_fast ship" speed="19.44" length="399.77" shape="378.12,36.49 -1.01,163.28">
            <param key="origId" value="162589256"/>
        </lane>
    </edge>
    <edge id="162589257" from="4738838459" to="3756077999" name="Stevens Road" priority="8" type="highway.trunk_link" spreadType="center">
        <lane id="162589257_0" index="0" disallow="pedestrian bicycle tram rail_urban rail rail_electric rail_fast ship" speed="13.89" length="113.77" shape="120.45,115.09 12.06,149.63">
            <param key="origId" value="162589257"/>
        </lane>
        <lane id="162589257_1" index="1" disallow="pedestrian bicycle tram rail_urban rail rail_electric rail_fast ship" speed="13.89" length="113.77" shape="119.48,112.04 11.08,146.59">
            <param key="origId" value="162589257"/>
        </lane>
    </edge>
    <edge id="162589260" from="cluster_1744516446_1744516450_3838321209_3838321212_#2more" to="cluster_1744512250_1744512264" name="Whitley Road" priority="12" type="highway.primary" spreadType="center" shape="154.52,101.62 152.97,123.69 156.10,138.81 159.84,154.15 166.42,173.07">
        <lane id="162589260_0" index="0" disallow="tram rail_urban rail rail_electric rail_fast ship" speed="19.44" length="56.19" shape="160.26,111.26 159.42,123.26 162.34,137.40 165.99,152.34 170.04,164.01">
            <param key="origId" value="162589260 163141435 75280700"/>
        </lane>
        <lane id="162589260_1" index="1" disallow="tram rail_urban rail rail_electric rail_fast ship" speed="19.44" length="56.19" shape="157.05,111.33 156.19,123.47 159.22,138.11 162.91,153.24 167.02,165.05">
            <param key="origId" value="162589260 163141435 75280700"/>
        </lane>
        <lane id="162589260_2" index="2" disallow="tram rail_urban rail rail_electric rail_fast ship" speed="19.44" length="56.19" shape="153.83,111.39 152.97,123.69 156.10,138.81 159.84,154.15 163.99,166.08">
            <param key="origId" value="162589260 163141435 75280700"/>
        </lane>
        <lane id="162589260_3" index="3" disallow="tram rail_urban rail rail_electric rail_fast ship" speed="19.44" length="56.19" shape="150.62,111.45 149.75,123.91 152.98,139.51 156.77,155.06 160.96,167.12">
            <param key="origId" value="162589260 163141435 75280700"/>
        </lane>
        <lane id="162589260_4" index="4" disallow="tram rail_urban rail rail_electric rail_fast ship" speed="19.44" length="56.19" shape="147.41,111.51 146.52,124.12 149.86,140.22 153.69,155.96 157.93,168.16">
            <param key="origId" value="162589260 163141435 75280700"/>
        </lane>
        <param key="origFrom" value="1744516446"/>
        <param key="origTo" value="1744512264"/>
    </edge>
    <edge id="173768006#0" from="cluster_1744512250_1744512264" to="4739900216" name="Whitley Road" priority="12" type="highway.primary" spreadType="center" shape="166.42,173.07 170.27,185.47 176.87,206.29">
        <lane id="173768006#0_0" index="0" disallow="tram rail_urban rail rail_electric rail_fast ship" speed="19.44" length="9.46" shape="173.38,179.31 174.85,184.03 176.10,187.98">
            <param key="origId" value="173768006"/>
        </lane>
        <lane id="173768006#0_1" index="1" disallow="tram rail_urban rail rail_electric rail_fast ship" speed="19.44" length="9.46" shape="170.26,180.04 171.80,184.99 173.05,188.95">
            <param key="origId" value="173768006"/>
        </lane>
        <lane id="173768006#0_2" index="2" disallow="tram rail_urban rail rail_electric rail_fast ship" speed="19.44" length="9.46" shape="167.14,180.77 168.74,185.95 170.00,189.92">
            <param key="origId" value="173768006"/>
        </lane>
        <lane id="173768006#0_3" index="3" disallow="tram rail_urban rail rail_electric rail_fast ship" speed="19.44" length="9.46" shape="164.01,181.50 165.69,186.91 166.95,190.88">
            <param key="origId" value="173768006"/>
        </lane>
        <param key="origFrom" value="1744512264"/>
    </edge>
    <edge id="176204431" from="4739902972" to="5157989169" name="Dunearn Road" priority="8" type="highway.trunk_link" spreadType="center" shape="203.89,159.76 313.89,124.92 348.38,114.00 417.91,91.31">
        <lane id="176204431_0" index="0" disallow="pedestrian bicycle tram rail_urban rail rail_electric rail_fast ship" speed="13.89" length="224.07" shape="204.01,158.04 313.41,123.39 347.89,112.48 417.41,89.79">
            <param key="origId" value="176204431"/>
        </lane>
        <lane id="176204431_1" index="1" disallow="pedestrian bicycle tram rail_urban rail rail_electric rail_fast ship" speed="13.89" length="224.07" shape="204.98,161.09 314.37,126.45 348.87,115.52 418.41,92.83">
            <param key="origId" value="176204431"/>
        </lane>
    </edge>
    <edge id="176204628" from="cluster_1744512250_1744512264" to="cluster_1744516446_1744516450_3838321209_3838321212_#2more" name="Whitley Road" priority="12" type="highway.primary" spreadType="center" shape="182.00,168.27 179.22,147.18 178.73,135.94 177.31,117.69 176.81,93.98">
        <lane id="176204628_0" index="0" disallow="tram rail_urban rail rail_electric rail_fast ship" speed="19.44" length="49.52" shape="176.31,161.86 174.43,147.60 173.94,136.23 172.51,117.93 172.37,111.03">
            <param key="origId" value="176204628 163141440 163141438"/>
        </lane>
        <lane id="176204628_1" index="1" disallow="tram rail_urban rail rail_electric rail_fast ship" speed="19.44" length="49.52" shape="179.40,160.80 177.62,147.32 177.13,136.04 175.71,117.77 175.57,110.97">
            <param key="origId" value="176204628 163141440 163141438"/>
        </lane>
        <lane id="176204628_2" index="2" disallow="tram rail_urban rail rail_electric rail_fast ship" speed="19.44" length="49.52" shape="182.49,159.75 180.82,147.04 180.33,135.84 178.91,117.61 178.77,110.91">
            <param key="origId" value="176204628 163141440 163141438"/>
        </lane>
        <lane id="176204628_3" index="3" disallow="tram rail_urban rail rail_electric rail_fast ship" speed="19.44" length="49.52" shape="185.58,158.69 184.01,146.76 183.52,135.65 182.11,117.45 181.97,110.85">
            <param key="origId" value="176204628 163141440 163141438"/>
        </lane>
        <param key="origFrom" value="1744512250"/>
        <param key="origTo" value="1744516450"/>
    </edge>
    <edge id="480939041" from="6014378188" to="4738838456" name="Stevens Road" priority="11" type="highway.secondary" spreadType="center" shape="165.29,11.02 160.72,35.01 159.70,42.68 155.37,68.83">
        <lane id="480939041_0" index="0" disallow="tram rail_urban rail rail_electric rail_fast ship" speed="16.67" length="64.57" shape="170.01,11.92 165.46,35.78 164.45,43.39 159.14,75.44">
            <param key="origId" value="480939041 737211652 639258114"/>
        </lane>
        <lane id="480939041_1" index="1" disallow="tram rail_urban rail rail_electric rail_fast ship" speed="16.67" length="64.57" shape="166.86,11.32 162.30,35.27 161.28,42.92 155.98,74.92">
            <param key="origId" value="480939041 737211652 639258114"/>
        </lane>
        <lane id="480939041_2" index="2" disallow="tram rail_urban rail rail_electric rail_fast ship" speed="16.67" length="64.57" shape="163.72,10.72 159.14,34.75 158.12,42.44 152.83,74.39">
            <param key="origId" value="480939041 737211652 639258114"/>
        </lane>
        <lane id="480939041_3" index="3" disallow="tram rail_urban rail rail_electric rail_fast ship" speed="16.67" length="64.57" shape="160.57,10.12 155.98,34.24 154.95,41.97 149.67,73.87">
            <param key="origId" value="480939041 737211652 639258114"/>
        </lane>
    </edge>
    <edge id="480939042" from="4738838456" to="4738838459" priority="8" type="highway.trunk_link" spreadType="center" shape="155.37,68.83 148.38,79.01 142.74,88.38 140.39,92.35 134.05,100.08 121.29,113.14">
        <lane id="480939042_0" index="0" disallow="pedestrian bicycle tram rail_urban rail rail_electric rail_fast ship" speed="13.89" length="22.84" shape="145.14,84.39 142.74,88.38 140.39,92.35 134.05,100.08 131.56,102.63">
            <param key="origId" value="480939042"/>
        </lane>
    </edge>