<?xml version="1.0" encoding="UTF-8"?>

<!-- generated on 2023-07-14 14:12:41 by Eclipse SUMO netconvert Version 1.17.0
<configuration xmlns:xsi="http://www.w3.org/2001/XMLSchema-instance" xsi:noNamespaceSchemaLocation="http://sumo.dlr.de/xsd/netconvertConfiguration.xsd">

    <input>
        <sumo-net-file value="osm.net.xml.gz"/>
    </input>

    <output>
        <output-file value="osm.net.xml"/>
        <output.street-names value="true"/>
    </output>

    <processing>
        <geometry.min-radius.fix.railways value="false"/>
        <geometry.max-grade.fix value="false"/>
        <offset.disable-normalization value="true"/>
        <lefthand value="0"/>
    </processing>

    <junctions>
        <no-turnarounds value="true"/>
        <junctions.corner-detail value="5"/>
        <junctions.limit-turn-speed value="5.50"/>
        <rectangular-lane-cut value="0"/>
    </junctions>

    <pedestrian>
        <walkingareas value="0"/>
    </pedestrian>

</configuration>
-->

<net version="1.16" junctionCornerDetail="5" limitTurnSpeed="5.50" xmlns:xsi="http://www.w3.org/2001/XMLSchema-instance" xsi:noNamespaceSchemaLocation="http://sumo.dlr.de/xsd/net_file.xsd">

    <location netOffset="-364446.49,-140511.91" convBoundary="0.00,0.00,3038.07,1095.32" origBoundary="103.781605,1.270977,103.808912,1.280871" projParameter="+proj=utm +zone=48 +ellps=WGS84 +datum=WGS84 +units=m +no_defs"/>

    <type id="highway.bridleway" priority="1" numLanes="1" speed="2.78" allow="pedestrian" oneway="1" width="2.00"/>
    <type id="highway.bus_guideway" priority="1" numLanes="1" speed="27.78" allow="bus" oneway="1"/>
    <type id="highway.cycleway" priority="1" numLanes="1" speed="5.56" allow="bicycle" oneway="0" width="1.00"/>
    <type id="highway.footway" priority="1" numLanes="1" speed="2.78" allow="pedestrian" oneway="1" width="2.00"/>
    <type id="highway.ford" priority="1" numLanes="1" speed="2.78" allow="army" oneway="0"/>
    <type id="highway.living_street" priority="2" numLanes="1" speed="2.78" disallow="tram rail_urban rail rail_electric rail_fast ship" oneway="0"/>
    <type id="highway.motorway" priority="14" numLanes="2" speed="39.44" allow="private emergency authority army vip passenger hov taxi bus coach delivery truck trailer motorcycle evehicle custom1 custom2" oneway="1"/>
    <type id="highway.motorway_link" priority="9" numLanes="1" speed="22.22" allow="private emergency authority army vip passenger hov taxi bus coach delivery truck trailer motorcycle evehicle custom1 custom2" oneway="1"/>
    <type id="highway.path" priority="1" numLanes="1" speed="5.56" allow="pedestrian bicycle" oneway="0" width="2.00"/>
    <type id="highway.pedestrian" priority="1" numLanes="1" speed="2.78" allow="pedestrian" oneway="1" width="2.00"/>
    <type id="highway.primary" priority="12" numLanes="2" speed="27.78" disallow="tram rail_urban rail rail_electric rail_fast ship" oneway="0"/>
    <type id="highway.primary_link" priority="7" numLanes="1" speed="22.22" disallow="tram rail_urban rail rail_electric rail_fast ship" oneway="0"/>
    <type id="highway.raceway" priority="15" numLanes="2" speed="83.33" allow="vip" oneway="0"/>
    <type id="highway.residential" priority="3" numLanes="1" speed="13.89" disallow="tram rail_urban rail rail_electric rail_fast ship" oneway="0"/>
    <type id="highway.secondary" priority="11" numLanes="1" speed="27.78" disallow="tram rail_urban rail rail_electric rail_fast ship" oneway="0"/>
    <type id="highway.secondary_link" priority="6" numLanes="1" speed="22.22" disallow="tram rail_urban rail rail_electric rail_fast ship" oneway="0"/>
    <type id="highway.service" priority="1" numLanes="1" speed="5.56" allow="pedestrian delivery bicycle" oneway="0"/>
    <type id="highway.stairs" priority="1" numLanes="1" speed="1.39" allow="pedestrian" oneway="1" width="2.00"/>
    <type id="highway.step" priority="1" numLanes="1" speed="1.39" allow="pedestrian" oneway="1" width="2.00"/>
    <type id="highway.steps" priority="1" numLanes="1" speed="1.39" allow="pedestrian" oneway="1" width="2.00"/>
    <type id="highway.tertiary" priority="10" numLanes="1" speed="22.22" disallow="tram rail_urban rail rail_electric rail_fast ship" oneway="0"/>
    <type id="highway.tertiary_link" priority="5" numLanes="1" speed="22.22" disallow="tram rail_urban rail rail_electric rail_fast ship" oneway="0"/>
    <type id="highway.track" priority="1" numLanes="1" speed="5.56" allow="pedestrian motorcycle moped bicycle" oneway="0"/>
    <type id="highway.trunk" priority="13" numLanes="2" speed="27.78" disallow="pedestrian bicycle tram rail_urban rail rail_electric rail_fast ship" oneway="0"/>
    <type id="highway.trunk_link" priority="8" numLanes="1" speed="22.22" disallow="pedestrian bicycle tram rail_urban rail rail_electric rail_fast ship" oneway="0"/>
    <type id="highway.unclassified" priority="4" numLanes="1" speed="13.89" disallow="tram rail_urban rail rail_electric rail_fast ship" oneway="0"/>
    <type id="highway.unsurfaced" priority="1" numLanes="1" speed="8.33" disallow="tram rail_urban rail rail_electric rail_fast ship" oneway="0"/>
    <type id="railway.highspeed" priority="21" numLanes="1" speed="69.44" allow="rail_fast" oneway="1"/>
    <type id="railway.light_rail" priority="19" numLanes="1" speed="27.78" allow="rail_urban" oneway="1"/>
    <type id="railway.preserved" priority="16" numLanes="1" speed="27.78" allow="rail" oneway="1"/>
    <type id="railway.rail" priority="20" numLanes="1" speed="44.44" allow="rail" oneway="1"/>
    <type id="railway.subway" priority="18" numLanes="1" speed="27.78" allow="rail_urban" oneway="1"/>
    <type id="railway.tram" priority="17" numLanes="1" speed="13.89" allow="tram" oneway="1"/>

    <edge id=":1363294705_0" function="internal">
        <lane id=":1363294705_0_0" index="0" disallow="tram rail_urban rail rail_electric rail_fast ship" speed="6.44" length="9.03" shape="1106.03,713.94 1104.84,711.75 1103.24,710.50 1101.24,710.18 1098.83,710.78"/>
    </edge>
    <edge id=":1363294705_1" function="internal">
        <lane id=":1363294705_1_0" index="0" disallow="tram rail_urban rail rail_electric rail_fast ship" speed="13.89" length="14.41" shape="1106.03,713.94 1100.99,700.44"/>
    </edge>
    <edge id=":1363294705_2" function="internal">
        <lane id=":1363294705_2_0" index="0" disallow="tram rail_urban rail rail_electric rail_fast ship" speed="13.89" length="14.41" shape="1103.99,699.32 1109.03,712.82"/>
    </edge>
    <edge id=":1363294705_3" function="internal">
        <lane id=":1363294705_3_0" index="0" disallow="tram rail_urban rail rail_electric rail_fast ship" speed="8.10" length="4.02" shape="1103.99,699.32 1104.80,703.08 1104.77,703.25"/>
    </edge>
    <edge id=":1363294705_6" function="internal">
        <lane id=":1363294705_6_0" index="0" disallow="tram rail_urban rail rail_electric rail_fast ship" speed="8.10" length="10.21" shape="1104.77,703.25 1104.21,706.24 1102.22,708.81 1098.83,710.78"/>
    </edge>
    <edge id=":1363294705_4" function="internal">
        <lane id=":1363294705_4_0" index="0" disallow="tram rail_urban rail rail_electric rail_fast ship" speed="6.63" length="9.18" shape="1097.63,707.82 1099.83,706.54 1101.12,704.89 1101.51,702.85 1100.99,700.44"/>
    </edge>
    <edge id=":1363294705_5" function="internal">
        <lane id=":1363294705_5_0" index="0" disallow="tram rail_urban rail rail_electric rail_fast ship" speed="7.94" length="14.30" shape="1097.63,707.82 1101.44,706.86 1104.61,707.37 1107.14,709.36 1109.03,712.82"/>
    </edge>
    <edge id=":1363294706_0" function="internal">
        <lane id=":1363294706_0_0" index="0" disallow="tram rail_urban rail rail_electric rail_fast ship" speed="3.65" length="4.67" shape="1088.14,715.17 1086.72,714.89 1086.05,714.30 1086.12,713.41 1086.92,712.21"/>
    </edge>
    <edge id=":1363301322_0" function="internal">
        <lane id=":1363301322_0_0" index="0" disallow="tram rail_urban rail rail_electric rail_fast ship" speed="3.65" length="4.67" shape="1010.47,704.49 1011.87,704.83 1012.52,705.44 1012.42,706.33 1011.57,707.49"/>
    </edge>
    <edge id=":246294799_0" function="internal">
        <lane id=":246294799_0_0" index="0" disallow="tram rail_urban rail rail_electric rail_fast ship" speed="6.82" length="10.41" shape="1074.68,630.01 1074.06,627.20 1074.50,624.91 1076.02,623.14 1078.60,621.88"/>
        <lane id=":246294799_0_1" index="1" disallow="tram rail_urban rail rail_electric rail_fast ship" speed="6.03" length="7.90" shape="1074.68,630.01 1074.54,628.52 1075.31,627.17 1076.99,625.97 1079.58,624.92"/>
    </edge>
    <edge id=":246294799_2" function="internal">
        <lane id=":246294799_2_0" index="0" disallow="tram rail_urban rail rail_electric rail_fast ship" speed="16.67" length="9.54" shape="1068.49,621.90 1077.62,618.83"/>
        <lane id=":246294799_2_1" index="1" disallow="tram rail_urban rail rail_electric rail_fast ship" speed="16.67" length="9.54" shape="1069.56,624.92 1078.60,621.88"/>
        <lane id=":246294799_2_2" index="2" disallow="tram rail_urban rail rail_electric rail_fast ship" speed="16.67" length="9.54" shape="1070.62,627.94 1079.58,624.92"/>
    </edge>
    <edge id=":246294799_5" function="internal">
        <lane id=":246294799_5_0" index="0" disallow="tram rail_urban rail rail_electric rail_fast ship" speed="6.16" length="7.86" shape="1070.62,627.94 1073.28,627.21 1075.34,627.13 1076.81,627.68 1077.68,628.87"/>
    </edge>
    <edge id=":4600564515_0" function="internal">
        <lane id=":4600564515_0_0" index="0" disallow="tram rail_urban rail rail_electric rail_fast ship" speed="13.89" length="6.88" shape="993.67,601.35 993.77,603.37 993.49,604.77 993.22,606.17 993.36,608.18"/>
    </edge>
    <edge id=":4600564515_1" function="internal">
        <lane id=":4600564515_1_0" index="0" disallow="tram rail_urban rail rail_electric rail_fast ship" speed="13.48" length="6.28" shape="990.52,601.88 990.70,603.70 990.55,604.96 990.14,606.20 989.54,607.97"/>
    </edge>
    <edge id=":4600564523_0" function="internal">
        <lane id=":4600564523_0_0" index="0" disallow="tram rail_urban rail rail_electric rail_fast ship" speed="13.89" length="7.02" shape="987.79,562.67 988.41,569.54"/>
        <lane id=":4600564523_0_1" index="1" disallow="tram rail_urban rail rail_electric rail_fast ship" speed="13.89" length="7.02" shape="984.61,562.96 985.26,570.07"/>
    </edge>
    <edge id=":4600564523_2" function="internal">
        <lane id=":4600564523_2_0" index="0" disallow="tram rail_urban rail rail_electric rail_fast ship" speed="8.32" length="6.95" shape="980.77,565.00 982.57,566.27 983.93,567.53 984.82,568.80 985.26,570.07"/>
    </edge>
    <edge id=":4600564535_0" function="internal">
        <lane id=":4600564535_0_0" index="0" disallow="tram rail_urban rail rail_electric rail_fast ship" speed="13.89" length="8.70" shape="1007.43,552.84 1006.68,550.38 1006.05,548.72 1005.20,547.16 1003.80,545.01"/>
    </edge>
    <edge id=":4600564535_1" function="internal">
        <lane id=":4600564535_1_0" index="0" disallow="tram rail_urban rail rail_electric rail_fast ship" speed="13.89" length="8.43" shape="1013.57,551.02 1012.88,548.62 1012.55,546.93 1012.52,545.21 1012.71,542.72"/>
    </edge>
    <edge id=":4685900497_0" function="internal">
        <lane id=":4685900497_0_0" index="0" disallow="tram rail_urban rail rail_electric rail_fast ship" speed="16.67" length="14.85" shape="989.27,630.03 975.25,635.17"/>
        <lane id=":4685900497_0_1" index="1" disallow="tram rail_urban rail rail_electric rail_fast ship" speed="16.67" length="14.85" shape="988.18,627.02 974.24,632.13"/>
        <lane id=":4685900497_0_2" index="2" disallow="tram rail_urban rail rail_electric rail_fast ship" speed="16.67" length="14.85" shape="987.08,624.01 973.23,629.10"/>
    </edge>
    <edge id=":4685900497_3" function="internal">
        <lane id=":4685900497_3_0" index="0" disallow="tram rail_urban rail rail_electric rail_fast ship" speed="15.02" length="15.62" shape="983.66,619.34 982.10,622.75 980.76,626.37 978.51,629.67 974.24,632.13"/>
        <lane id=":4685900497_3_1" index="1" disallow="tram rail_urban rail rail_electric rail_fast ship" speed="14.19" length="15.62" shape="983.66,619.34 981.83,622.31 979.97,624.94 977.34,627.21 973.23,629.10"/>
    </edge>
    <edge id=":5135512091_0" function="internal">
        <lane id=":5135512091_0_0" index="0" disallow="tram rail_urban rail rail_electric rail_fast ship" speed="16.67" length="8.20" shape="926.75,672.23 928.92,671.15 930.24,670.08 931.57,669.01 933.75,667.96"/>
        <lane id=":5135512091_0_1" index="1" disallow="tram rail_urban rail rail_electric rail_fast ship" speed="16.67" length="8.20" shape="927.87,675.23 930.03,674.15 931.34,673.08 932.66,672.02 934.83,670.97"/>
        <lane id=":5135512091_0_2" index="2" disallow="tram rail_urban rail rail_electric rail_fast ship" speed="16.67" length="8.20" shape="928.98,678.23 931.14,677.16 932.44,676.09 933.75,675.03 935.91,673.98"/>
        <lane id=":5135512091_0_3" index="3" disallow="tram rail_urban rail rail_electric rail_fast ship" speed="16.67" length="8.20" shape="928.98,678.23 931.30,677.63 932.98,677.59 934.67,677.57 937.00,676.99"/>
    </edge>
    <edge id=":5176601535_0" function="internal">
        <lane id=":5176601535_0_0" index="0" disallow="tram rail_urban rail rail_electric rail_fast ship" speed="7.03" length="10.20" shape="912.08,687.94 911.62,685.13 912.10,682.82 913.52,681.01 915.87,679.71"/>
        <lane id=":5176601535_0_1" index="1" disallow="tram rail_urban rail rail_electric rail_fast ship" speed="6.26" length="7.88" shape="912.08,687.94 912.04,686.47 912.84,685.10 914.49,683.85 916.99,682.70"/>
    </edge>
    <edge id=":5176601535_2" function="internal">
        <lane id=":5176601535_2_0" index="0" disallow="tram rail_urban rail rail_electric rail_fast ship" speed="16.67" length="9.38" shape="905.97,679.94 914.75,676.71"/>
        <lane id=":5176601535_2_1" index="1" disallow="tram rail_urban rail rail_electric rail_fast ship" speed="16.67" length="9.38" shape="907.07,682.95 915.87,679.71"/>
        <lane id=":5176601535_2_2" index="2" disallow="tram rail_urban rail rail_electric rail_fast ship" speed="16.67" length="9.38" shape="908.16,685.95 916.99,682.70"/>
    </edge>
    <edge id=":5176601535_5" function="internal">
        <lane id=":5176601535_5_0" index="0" disallow="tram rail_urban rail rail_electric rail_fast ship" speed="6.04" length="7.95" shape="908.16,685.95 910.85,685.20 912.91,685.14 914.35,685.76 915.16,687.06"/>
    </edge>
    <edge id=":5176817453_0" function="internal">
        <lane id=":5176817453_0_0" index="0" disallow="tram rail_urban rail rail_electric rail_fast ship" speed="13.89" length="6.46" shape="1014.85,522.77 1016.30,521.57 1017.05,520.45 1017.80,519.33 1019.26,518.15"/>
    </edge>
    <edge id=":5176817453_1" function="internal">
        <lane id=":5176817453_1_0" index="0" disallow="tram rail_urban rail rail_electric rail_fast ship" speed="9.84" length="5.48" shape="1017.88,525.28 1018.52,523.77 1018.97,522.70 1019.64,521.82 1020.92,520.89"/>
    </edge>
    <edge id=":5176817456_0" function="internal">
        <lane id=":5176817456_0_0" index="0" disallow="tram rail_urban rail rail_electric rail_fast ship" speed="13.89" length="6.64" shape="956.71,558.16 958.49,557.37 959.85,557.13 961.20,556.88 962.95,556.04"/>
    </edge>
    <edge id=":5176817456_1" function="internal">
        <lane id=":5176817456_1_0" index="0" disallow="tram rail_urban rail rail_electric rail_fast ship" speed="9.54" length="6.06" shape="958.34,560.91 959.90,560.08 961.08,559.74 962.35,559.73 964.13,559.92"/>
    </edge>
    <edge id=":5176817458_0" function="internal">
        <lane id=":5176817458_0_0" index="0" disallow="tram rail_urban rail rail_electric rail_fast ship" speed="13.89" length="7.86" shape="799.15,646.31 801.11,645.27 802.26,644.19 803.38,643.06 805.27,641.85"/>
        <lane id=":5176817458_0_1" index="1" disallow="tram rail_urban rail rail_electric rail_fast ship" speed="13.89" length="7.86" shape="800.32,649.29 802.36,648.22 803.56,647.12 804.73,645.96 806.69,644.71"/>
        <lane id=":5176817458_0_2" index="2" disallow="tram rail_urban rail rail_electric rail_fast ship" speed="13.89" length="7.86" shape="800.32,649.29 802.60,648.66 804.27,648.55 805.91,648.39 808.12,647.58"/>
    </edge>
    <edge id=":5176841022_0" function="internal">
        <lane id=":5176841022_0_0" index="0" disallow="tram rail_urban rail rail_electric rail_fast ship" speed="13.89" length="23.32" shape="862.59,543.06 865.58,549.56 868.38,555.30 870.93,560.10 873.18,563.81"/>
    </edge>
    <edge id=":5176841022_1" function="internal">
        <lane id=":5176841022_1_0" index="0" disallow="tram rail_urban rail rail_electric rail_fast ship" speed="13.89" length="23.27" shape="862.59,543.06 865.15,549.04 866.79,554.06 867.73,559.25 868.15,565.73"/>
        <lane id=":5176841022_1_1" index="1" disallow="tram rail_urban rail rail_electric rail_fast ship" speed="13.89" length="23.27" shape="859.67,544.37 862.19,550.27 863.74,555.11 864.59,560.12 864.97,566.52"/>
    </edge>
    <edge id=":5176841023_0" function="internal">
        <lane id=":5176841023_0_0" index="0" disallow="tram rail_urban rail rail_electric rail_fast ship" speed="13.89" length="15.07" shape="869.45,600.40 856.39,607.97"/>
        <lane id=":5176841023_0_1" index="1" disallow="tram rail_urban rail rail_electric rail_fast ship" speed="13.89" length="15.07" shape="867.84,597.63 854.82,605.19"/>
    </edge>
    <edge id=":5176841023_2" function="internal">
        <lane id=":5176841023_2_0" index="0" disallow="tram rail_urban rail rail_electric rail_fast ship" speed="12.99" length="15.18" shape="864.68,594.71 863.17,599.32 861.28,603.06 859.03,605.94 856.39,607.97"/>
        <lane id=":5176841023_2_1" index="1" disallow="tram rail_urban rail rail_electric rail_fast ship" speed="12.31" length="15.18" shape="861.82,593.03 860.43,597.40 858.80,600.88 856.93,603.48 854.82,605.19"/>
    </edge>
    <edge id=":5176841044_0" function="internal">
        <lane id=":5176841044_0_0" index="0" disallow="tram rail_urban rail rail_electric rail_fast ship" speed="13.89" length="12.06" shape="932.35,564.84 929.14,566.36 926.81,567.14 924.51,567.95 921.36,569.59"/>
        <lane id=":5176841044_0_1" index="1" disallow="tram rail_urban rail rail_electric rail_fast ship" speed="13.89" length="12.06" shape="930.82,562.04 927.57,563.57 925.22,564.36 922.89,565.19 919.72,566.85"/>
    </edge>
    <edge id=":5176841044_2" function="internal">
        <lane id=":5176841044_2_0" index="0" disallow="tram rail_urban rail rail_electric rail_fast ship" speed="13.89" length="12.42" shape="930.82,562.04 927.54,563.45 925.05,563.71 922.43,563.39 918.74,563.05"/>
        <lane id=":5176841044_2_1" index="1" disallow="tram rail_urban rail rail_electric rail_fast ship" speed="13.89" length="10.72" shape="929.28,559.23 926.45,560.41 924.30,560.55 922.04,560.19 918.85,559.85"/>
    </edge>
    <edge id=":5176841049_0" function="internal">
        <lane id=":5176841049_0_0" index="0" disallow="tram rail_urban rail rail_electric rail_fast ship" speed="13.89" length="17.23" shape="881.11,553.20 879.27,548.25 877.88,544.84 877.02,541.36 876.78,536.16"/>
        <lane id=":5176841049_0_1" index="1" disallow="tram rail_urban rail rail_electric rail_fast ship" speed="13.89" length="17.23" shape="884.16,552.21 882.41,547.56 881.06,544.37 880.22,541.10 879.98,536.21"/>
    </edge>
    <edge id=":5176841049_2" function="internal">
        <lane id=":5176841049_2_0" index="0" disallow="tram rail_urban rail rail_electric rail_fast ship" speed="13.15" length="3.53" shape="887.53,550.05 885.00,547.59"/>
        <lane id=":5176841049_2_1" index="1" disallow="tram rail_urban rail rail_electric rail_fast ship" speed="12.16" length="10.21" shape="889.70,547.69 885.43,543.61 882.50,540.46"/>
    </edge>
    <edge id=":5176841049_4" function="internal">
        <lane id=":5176841049_4_0" index="0" disallow="tram rail_urban rail rail_electric rail_fast ship" speed="13.15" length="14.30" shape="885.00,547.59 882.80,545.46 879.44,541.61 877.43,538.51 876.78,536.16"/>
    </edge>
    <edge id=":5176841049_5" function="internal">
        <lane id=":5176841049_5_0" index="0" disallow="tram rail_urban rail rail_electric rail_fast ship" speed="12.16" length="4.98" shape="882.50,540.46 882.39,540.34 880.57,537.87 879.98,536.21"/>
    </edge>
    <edge id=":5229033059_0" function="internal">
        <lane id=":5229033059_0_0" index="0" disallow="tram rail_urban rail rail_electric rail_fast ship" speed="13.89" length="8.21" shape="1132.85,441.27 1130.92,442.72 1129.82,444.01 1128.72,445.29 1126.78,446.72"/>
        <lane id=":5229033059_0_1" index="1" disallow="tram rail_urban rail rail_electric rail_fast ship" speed="13.89" length="8.21" shape="1132.85,441.27 1130.67,442.28 1129.01,442.63 1127.35,442.96 1125.16,443.96"/>
    </edge>
    <edge id=":6989250130_0" function="internal">
        <lane id=":6989250130_0_0" index="0" disallow="tram rail_urban rail rail_electric rail_fast ship" speed="7.22" length="9.93" shape="908.91,480.32 910.96,482.35 913.10,483.42 915.31,483.54 917.61,482.71"/>
    </edge>
    <edge id=":6989250130_1" function="internal">
        <lane id=":6989250130_1_0" index="0" disallow="tram rail_urban rail rail_electric rail_fast ship" speed="3.65" length="4.67" shape="908.91,480.32 909.04,481.76 908.67,482.57 907.79,482.76 906.42,482.33"/>
    </edge>
    <edge id=":6989250130_2" function="internal">
        <lane id=":6989250130_2_0" index="0" disallow="tram rail_urban rail rail_electric rail_fast ship" speed="6.18" length="9.05" shape="904.97,489.80 906.99,488.25 907.90,486.49 907.71,484.52 906.42,482.33"/>
    </edge>
    <edge id=":6989250130_3" function="internal">
        <lane id=":6989250130_3_0" index="0" disallow="tram rail_urban rail rail_electric rail_fast ship" speed="13.89" length="14.49" shape="904.97,489.80 917.61,482.71"/>
        <lane id=":6989250130_3_1" index="1" disallow="tram rail_urban rail rail_electric rail_fast ship" speed="13.89" length="14.49" shape="906.54,492.59 919.17,485.50"/>
    </edge>
    <edge id=":6989250131_0" function="internal">
        <lane id=":6989250131_0_0" index="0" disallow="tram rail_urban rail rail_electric rail_fast ship" speed="7.10" length="9.78" shape="897.67,471.46 895.65,469.49 893.55,468.47 891.37,468.41 889.09,469.31"/>
    </edge>
    <edge id=":6989250131_1" function="internal">
        <lane id=":6989250131_1_0" index="0" disallow="tram rail_urban rail rail_electric rail_fast ship" speed="3.65" length="4.67" shape="897.67,471.46 897.54,470.02 897.91,469.21 898.79,469.02 900.16,469.45"/>
    </edge>
    <edge id=":6989250131_2" function="internal">
        <lane id=":6989250131_2_0" index="0" disallow="tram rail_urban rail rail_electric rail_fast ship" speed="6.22" length="9.05" shape="901.52,461.91 899.55,463.50 898.67,465.29 898.87,467.27 900.16,469.45"/>
    </edge>
    <edge id=":6989250131_3" function="internal">
        <lane id=":6989250131_3_0" index="0" disallow="tram rail_urban rail rail_electric rail_fast ship" speed="13.89" length="14.46" shape="901.52,461.91 889.09,469.31"/>
        <lane id=":6989250131_3_1" index="1" disallow="tram rail_urban rail rail_electric rail_fast ship" speed="13.89" length="14.46" shape="899.88,459.16 887.46,466.57"/>
    </edge>
    <edge id=":cluster_1794017111_4600564507_4600564518_6062570942_#2more_0" function="internal">
        <lane id=":cluster_1794017111_4600564507_4600564518_6062570942_#2more_0_0" index="0" disallow="tram rail_urban rail rail_electric rail_fast ship" speed="16.67" length="18.93" shape="1040.00,613.23 1034.83,615.33 1031.45,617.17 1028.06,618.96 1022.83,620.90"/>
        <lane id=":cluster_1794017111_4600564507_4600564518_6062570942_#2more_0_1" index="1" disallow="tram rail_urban rail rail_electric rail_fast ship" speed="16.67" length="18.93" shape="1038.96,610.20 1033.77,612.31 1030.38,614.16 1026.97,615.95 1021.72,617.89"/>
        <lane id=":cluster_1794017111_4600564507_4600564518_6062570942_#2more_0_2" index="2" disallow="tram rail_urban rail rail_electric rail_fast ship" speed="16.67" length="18.93" shape="1037.92,607.17 1032.71,609.29 1029.30,611.14 1025.88,612.94 1020.62,614.89"/>
        <lane id=":cluster_1794017111_4600564507_4600564518_6062570942_#2more_0_3" index="3" disallow="tram rail_urban rail rail_electric rail_fast ship" speed="16.67" length="18.93" shape="1037.92,607.17 1019.51,611.88"/>
    </edge>
    <edge id=":cluster_1794017111_4600564507_4600564518_6062570942_#2more_4" function="internal">
        <lane id=":cluster_1794017111_4600564507_4600564518_6062570942_#2more_4_0" index="0" disallow="tram rail_urban rail rail_electric rail_fast ship" speed="10.38" length="25.38" shape="1037.92,607.17 1033.19,607.44 1028.97,604.81 1025.26,599.28 1022.07,590.85"/>
        <lane id=":cluster_1794017111_4600564507_4600564518_6062570942_#2more_4_1" index="1" disallow="tram rail_urban rail rail_electric rail_fast ship" speed="9.95" length="23.24" shape="1037.92,607.17 1034.51,606.99 1031.25,604.06 1028.12,598.38 1025.14,589.94"/>
    </edge>
    <edge id=":cluster_1794017111_4600564507_4600564518_6062570942_#2more_6" function="internal">
        <lane id=":cluster_1794017111_4600564507_4600564518_6062570942_#2more_6_0" index="0" disallow="tram rail_urban rail rail_electric rail_fast ship" speed="14.09" length="43.94" shape="1027.81,634.42 1028.57,631.27 1027.36,623.11 1024.17,609.94 1019.00,591.76"/>
    </edge>
    <edge id=":cluster_1794017111_4600564507_4600564518_6062570942_#2more_7" function="internal">
        <lane id=":cluster_1794017111_4600564507_4600564518_6062570942_#2more_7_0" index="0" disallow="tram rail_urban rail rail_electric rail_fast ship" speed="16.67" length="18.45" shape="1027.81,634.42 1033.05,632.79 1036.76,632.09 1040.48,631.43 1045.74,629.90"/>
        <lane id=":cluster_1794017111_4600564507_4600564518_6062570942_#2more_7_1" index="1" disallow="tram rail_urban rail rail_electric rail_fast ship" speed="16.67" length="18.45" shape="1028.92,637.42 1034.13,635.80 1037.83,635.11 1041.54,634.45 1046.79,632.92"/>
        <lane id=":cluster_1794017111_4600564507_4600564518_6062570942_#2more_7_2" index="2" disallow="tram rail_urban rail rail_electric rail_fast ship" speed="16.67" length="18.45" shape="1030.03,640.43 1035.22,638.81 1038.90,638.12 1042.60,637.47 1047.83,635.95"/>
    </edge>
    <edge id=":cluster_1794017111_4600564507_4600564518_6062570942_#2more_10" function="internal">
        <lane id=":cluster_1794017111_4600564507_4600564518_6062570942_#2more_10_0" index="0" disallow="tram rail_urban rail rail_electric rail_fast ship" speed="10.00" length="24.55" shape="1031.13,643.43 1016.40,639.90 1009.55,633.47"/>
    </edge>
    <edge id=":cluster_1794017111_4600564507_4600564518_6062570942_#2more_11" function="internal">
        <lane id=":cluster_1794017111_4600564507_4600564518_6062570942_#2more_11_0" index="0" disallow="tram rail_urban rail rail_electric rail_fast ship" speed="10.00" length="24.55" shape="1009.55,633.47 1010.58,624.13 1019.51,611.88"/>
    </edge>
    <edge id=":cluster_1794019239_6062570943_0" function="internal">
        <lane id=":cluster_1794019239_6062570943_0_0" index="0" disallow="tram rail_urban rail rail_electric rail_fast ship" speed="16.67" length="11.51" shape="1003.79,626.77 1000.48,627.53 998.12,627.71 995.78,627.94 992.51,628.85"/>
        <lane id=":cluster_1794019239_6062570943_0_1" index="1" disallow="tram rail_urban rail rail_electric rail_fast ship" speed="16.67" length="11.51" shape="1002.85,623.71 999.53,624.48 997.18,624.65 994.83,624.87 991.57,625.79"/>
        <lane id=":cluster_1794019239_6062570943_0_2" index="2" disallow="tram rail_urban rail rail_electric rail_fast ship" speed="16.67" length="11.51" shape="1001.91,620.66 998.59,621.42 996.23,621.59 993.89,621.81 990.62,622.73"/>
    </edge>
    <edge id=":cluster_1794019239_6062570943_3" function="internal">
        <lane id=":cluster_1794019239_6062570943_3_0" index="0" disallow="tram rail_urban rail rail_electric rail_fast ship" speed="10.26" length="25.32" shape="1000.97,617.60 1015.95,622.06 1022.64,629.08"/>
    </edge>
    <edge id=":cluster_1794019239_6062570943_10" function="internal">
        <lane id=":cluster_1794019239_6062570943_10_0" index="0" disallow="tram rail_urban rail rail_electric rail_fast ship" speed="10.26" length="25.32" shape="1022.64,629.08 1021.04,638.64 1011.16,650.74"/>
    </edge>
    <edge id=":cluster_1794019239_6062570943_4" function="internal">
        <lane id=":cluster_1794019239_6062570943_4_0" index="0" disallow="tram rail_urban rail rail_electric rail_fast ship" speed="11.28" length="33.41" shape="994.38,613.65 997.43,627.02 1000.77,636.12 1004.40,640.95 1008.32,641.50"/>
        <lane id=":cluster_1794019239_6062570943_4_1" index="1" disallow="tram rail_urban rail rail_electric rail_fast ship" speed="11.65" length="36.74" shape="994.38,613.65 997.74,628.57 1001.35,638.70 1005.19,644.04 1009.26,644.58"/>
    </edge>
    <edge id=":cluster_1794019239_6062570943_6" function="internal">
        <lane id=":cluster_1794019239_6062570943_6_0" index="0" disallow="tram rail_urban rail rail_electric rail_fast ship" speed="16.67" length="11.40" shape="997.69,645.62 1008.32,641.50"/>
        <lane id=":cluster_1794019239_6062570943_6_1" index="1" disallow="tram rail_urban rail rail_electric rail_fast ship" speed="16.67" length="11.40" shape="998.63,648.68 1001.85,647.66 1004.03,646.86 1006.17,645.96 1009.26,644.58"/>