<?xml version="1.0" encoding="UTF-8"?>

<!-- generated on 2023-07-11 11:10:00 by Eclipse SUMO netconvert Version 1.17.0
<configuration xmlns:xsi="http://www.w3.org/2001/XMLSchema-instance" xsi:noNamespaceSchemaLocation="http://sumo.dlr.de/xsd/netconvertConfiguration.xsd">

    <input>
        <sumo-net-file value="osm.net.xml.gz"/>
    </input>

    <output>
        <output-file value="osm.net.xml"/>
        <output.street-names value="true"/>
    </output>

    <processing>
        <geometry.min-radius.fix.railways value="false"/>
        <geometry.max-grade.fix value="false"/>
        <offset.disable-normalization value="true"/>
        <lefthand value="0"/>
    </processing>

    <junctions>
        <no-turnarounds value="true"/>
        <junctions.corner-detail value="5"/>
        <junctions.limit-turn-speed value="5.50"/>
        <rectangular-lane-cut value="0"/>
    </junctions>

    <pedestrian>
        <walkingareas value="0"/>
    </pedestrian>

</configuration>
-->

<net version="1.16" junctionCornerDetail="5" limitTurnSpeed="5.50" xmlns:xsi="http://www.w3.org/2001/XMLSchema-instance" xsi:noNamespaceSchemaLocation="http://sumo.dlr.de/xsd/net_file.xsd">

    <location netOffset="-351048.86,-145962.39" convBoundary="0.00,0.00,459.12,574.41" origBoundary="103.661183,1.320202,103.665306,1.325400" projParameter="+proj=utm +zone=48 +ellps=WGS84 +datum=WGS84 +units=m +no_defs"/>

    <type id="highway.bridleway" priority="1" numLanes="1" speed="2.78" allow="pedestrian" oneway="1" width="2.00"/>
    <type id="highway.bus_guideway" priority="1" numLanes="1" speed="27.78" allow="bus" oneway="1"/>
    <type id="highway.cycleway" priority="1" numLanes="1" speed="5.56" allow="bicycle" oneway="0" width="1.00"/>
    <type id="highway.footway" priority="1" numLanes="1" speed="2.78" allow="pedestrian" oneway="1" width="2.00"/>
    <type id="highway.ford" priority="1" numLanes="1" speed="2.78" allow="army" oneway="0"/>
    <type id="highway.living_street" priority="2" numLanes="1" speed="2.78" disallow="tram rail_urban rail rail_electric rail_fast ship" oneway="0"/>
    <type id="highway.motorway" priority="14" numLanes="2" speed="39.44" allow="private emergency authority army vip passenger hov taxi bus coach delivery truck trailer motorcycle evehicle custom1 custom2" oneway="1"/>
    <type id="highway.motorway_link" priority="9" numLanes="1" speed="22.22" allow="private emergency authority army vip passenger hov taxi bus coach delivery truck trailer motorcycle evehicle custom1 custom2" oneway="1"/>
    <type id="highway.path" priority="1" numLanes="1" speed="5.56" allow="pedestrian bicycle" oneway="0" width="2.00"/>
    <type id="highway.pedestrian" priority="1" numLanes="1" speed="2.78" allow="pedestrian" oneway="1" width="2.00"/>
    <type id="highway.primary" priority="12" numLanes="2" speed="27.78" disallow="tram rail_urban rail rail_electric rail_fast ship" oneway="0"/>
    <type id="highway.primary_link" priority="7" numLanes="1" speed="22.22" disallow="tram rail_urban rail rail_electric rail_fast ship" oneway="0"/>
    <type id="highway.raceway" priority="15" numLanes="2" speed="83.33" allow="vip" oneway="0"/>
    <type id="highway.residential" priority="3" numLanes="1" speed="13.89" disallow="tram rail_urban rail rail_electric rail_fast ship" oneway="0"/>
    <type id="highway.secondary" priority="11" numLanes="1" speed="27.78" disallow="tram rail_urban rail rail_electric rail_fast ship" oneway="0"/>
    <type id="highway.secondary_link" priority="6" numLanes="1" speed="22.22" disallow="tram rail_urban rail rail_electric rail_fast ship" oneway="0"/>
    <type id="highway.service" priority="1" numLanes="1" speed="5.56" allow="pedestrian delivery bicycle" oneway="0"/>
    <type id="highway.stairs" priority="1" numLanes="1" speed="1.39" allow="pedestrian" oneway="1" width="2.00"/>
    <type id="highway.step" priority="1" numLanes="1" speed="1.39" allow="pedestrian" oneway="1" width="2.00"/>
    <type id="highway.steps" priority="1" numLanes="1" speed="1.39" allow="pedestrian" oneway="1" width="2.00"/>
    <type id="highway.tertiary" priority="10" numLanes="1" speed="22.22" disallow="tram rail_urban rail rail_electric rail_fast ship" oneway="0"/>
    <type id="highway.tertiary_link" priority="5" numLanes="1" speed="22.22" disallow="tram rail_urban rail rail_electric rail_fast ship" oneway="0"/>
    <type id="highway.track" priority="1" numLanes="1" speed="5.56" allow="pedestrian motorcycle moped bicycle" oneway="0"/>
    <type id="highway.trunk" priority="13" numLanes="2" speed="27.78" disallow="pedestrian bicycle tram rail_urban rail rail_electric rail_fast ship" oneway="0"/>
    <type id="highway.trunk_link" priority="8" numLanes="1" speed="22.22" disallow="pedestrian bicycle tram rail_urban rail rail_electric rail_fast ship" oneway="0"/>
    <type id="highway.unclassified" priority="4" numLanes="1" speed="13.89" disallow="tram rail_urban rail rail_electric rail_fast ship" oneway="0"/>
    <type id="highway.unsurfaced" priority="1" numLanes="1" speed="8.33" disallow="tram rail_urban rail rail_electric rail_fast ship" oneway="0"/>
    <type id="railway.highspeed" priority="21" numLanes="1" speed="69.44" allow="rail_fast" oneway="1"/>
    <type id="railway.light_rail" priority="19" numLanes="1" speed="27.78" allow="rail_urban" oneway="1"/>
    <type id="railway.preserved" priority="16" numLanes="1" speed="27.78" allow="rail" oneway="1"/>
    <type id="railway.rail" priority="20" numLanes="1" speed="44.44" allow="rail" oneway="1"/>
    <type id="railway.subway" priority="18" numLanes="1" speed="27.78" allow="rail_urban" oneway="1"/>
    <type id="railway.tram" priority="17" numLanes="1" speed="13.89" allow="tram" oneway="1"/>

    <edge id=":1343819043_0" function="internal">
        <lane id=":1343819043_0_0" index="0" disallow="tram rail_urban rail rail_electric rail_fast ship" speed="18.05" length="0.43" shape="283.62,330.74 283.94,331.21"/>
        <lane id=":1343819043_0_1" index="1" disallow="tram rail_urban rail rail_electric rail_fast ship" speed="18.05" length="0.43" shape="281.02,332.60 281.26,332.95"/>
        <lane id=":1343819043_0_2" index="2" disallow="tram rail_urban rail rail_electric rail_fast ship" speed="18.05" length="0.43" shape="278.41,334.45 278.57,334.69"/>
    </edge>
    <edge id=":1343819070_0" function="internal">
        <lane id=":1343819070_0_0" index="0" disallow="tram rail_urban rail rail_electric rail_fast ship" speed="18.05" length="0.28" shape="290.23,326.87 290.11,326.68"/>
        <lane id=":1343819070_0_1" index="1" disallow="tram rail_urban rail rail_electric rail_fast ship" speed="18.05" length="0.28" shape="292.92,325.13 292.76,324.89"/>
        <lane id=":1343819070_0_2" index="2" disallow="tram rail_urban rail rail_electric rail_fast ship" speed="18.05" length="0.28" shape="295.60,323.39 295.42,323.11"/>
    </edge>
    <edge id=":4728097129_0" function="internal">
        <lane id=":4728097129_0_0" index="0" disallow="pedestrian tram rail_urban rail rail_electric rail_fast ship" speed="13.89" length="9.59" shape="255.98,245.90 253.24,246.02 251.37,246.27 249.53,246.70 246.85,247.34"/>
        <lane id=":4728097129_0_1" index="1" disallow="pedestrian tram rail_urban rail rail_electric rail_fast ship" speed="13.89" length="9.59" shape="255.91,242.70 252.98,242.82 250.99,243.09 249.01,243.54 246.15,244.21"/>
    </edge>
    <edge id=":4728097129_2" function="internal">
        <lane id=":4728097129_2_0" index="0" disallow="pedestrian tram rail_urban rail rail_electric rail_fast ship" speed="8.74" length="8.94" shape="255.91,242.70 253.04,242.59 250.71,242.13 248.91,241.32 247.64,240.16"/>
        <lane id=":4728097129_2_1" index="1" disallow="pedestrian tram rail_urban rail rail_electric rail_fast ship" speed="8.03" length="7.46" shape="255.91,242.70 254.68,242.44 253.32,241.60 251.82,240.20 250.19,238.24"/>
    </edge>
    <edge id=":535172826_0" function="internal">
        <lane id=":535172826_0_0" index="0" disallow="pedestrian tram rail_urban rail rail_electric rail_fast ship" speed="13.89" length="11.63" shape="272.94,248.99 269.78,247.69 267.52,247.05 265.18,246.69 261.78,246.23"/>
        <lane id=":535172826_0_1" index="1" disallow="pedestrian tram rail_urban rail rail_electric rail_fast ship" speed="13.89" length="11.63" shape="273.54,245.76 270.35,244.45 268.06,243.84 265.69,243.51 262.24,243.07"/>
    </edge>
    <edge id=":535172826_2" function="internal">
        <lane id=":535172826_2_0" index="0" disallow="pedestrian tram rail_urban rail rail_electric rail_fast ship" speed="10.81" length="12.24" shape="272.51,240.98 269.31,243.50 266.46,245.21 263.95,246.12 261.78,246.23"/>
        <lane id=":535172826_2_1" index="1" disallow="pedestrian tram rail_urban rail rail_electric rail_fast ship" speed="9.58" length="9.52" shape="270.41,238.56 267.79,240.67 265.56,242.13 263.71,242.93 262.24,243.07"/>
    </edge>
    <edge id=":535173999_0" function="internal">
        <lane id=":535173999_0_0" index="0" disallow="pedestrian tram rail_urban rail rail_electric rail_fast ship" speed="13.89" length="9.20" shape="258.39,323.76 261.01,323.65 262.79,323.42 264.54,323.00 267.09,322.35"/>
        <lane id=":535173999_0_1" index="1" disallow="pedestrian tram rail_urban rail rail_electric rail_fast ship" speed="13.89" length="9.20" shape="258.45,326.96 261.27,326.85 263.20,326.60 265.10,326.16 267.85,325.46"/>
    </edge>
    <edge id=":535173999_2" function="internal">
        <lane id=":535173999_2_0" index="0" allow="private emergency authority army vip passenger hov taxi bus coach delivery truck trailer motorcycle evehicle custom1 custom2" speed="8.02" length="8.46" shape="258.45,326.96 261.23,327.08 263.45,327.54 265.10,328.34 266.19,329.48"/>
        <lane id=":535173999_2_1" index="1" allow="private emergency authority army vip passenger hov taxi bus coach delivery truck trailer motorcycle evehicle custom1 custom2" speed="7.24" length="6.79" shape="258.45,326.96 259.67,327.21 260.91,327.99 262.17,329.30 263.46,331.15"/>
    </edge>
    <edge id=":567844639_0" function="internal">
        <lane id=":567844639_0_0" index="0" disallow="pedestrian tram rail_urban rail rail_electric rail_fast ship" speed="16.66" length="12.53" shape="323.75,253.20 326.98,253.34 329.64,253.36 332.40,252.86 335.96,251.46"/>
    </edge>
    <edge id=":567844639_1" function="internal">
        <lane id=":567844639_1_0" index="0" disallow="tram rail_urban rail rail_electric rail_fast ship" speed="19.44" length="12.53" shape="325.30,258.43 328.38,256.22 330.45,254.64 332.61,253.20 335.96,251.46"/>
        <lane id=":567844639_1_1" index="1" disallow="tram rail_urban rail rail_electric rail_fast ship" speed="19.44" length="12.53" shape="327.09,261.08 330.05,258.95 332.04,257.42 334.11,256.03 337.33,254.35"/>
    </edge>
    <edge id=":567844728_0" function="internal">
        <lane id=":567844728_0_0" index="0" disallow="pedestrian tram rail_urban rail rail_electric rail_fast ship" speed="13.89" length="10.13" shape="248.25,322.56 251.11,323.13 253.07,323.52 255.05,323.74 257.95,323.77"/>
        <lane id=":567844728_0_1" index="1" disallow="pedestrian tram rail_urban rail rail_electric rail_fast ship" speed="13.89" length="10.13" shape="247.68,325.71 250.72,326.31 252.81,326.72 254.92,326.94 258.01,326.97"/>
    </edge>
    <edge id=":567844728_2" function="internal">
        <lane id=":567844728_2_0" index="0" allow="private emergency authority army vip passenger hov taxi bus coach delivery truck trailer motorcycle evehicle custom1 custom2" speed="10.60" length="10.95" shape="249.06,329.73 251.60,327.15 253.93,325.29 256.05,324.17 257.95,323.77"/>
        <lane id=":567844728_2_1" index="1" allow="private emergency authority army vip passenger hov taxi bus coach delivery truck trailer motorcycle evehicle custom1 custom2" speed="9.31" length="8.35" shape="251.43,331.87 253.49,329.74 255.27,328.21 256.78,327.29 258.01,326.97"/>
    </edge>
    <edge id=":cluster_535172820_535172822_0" function="internal">
        <lane id=":cluster_535172820_535172822_0_0" index="0" allow="private emergency authority army vip passenger hov taxi bus coach delivery truck trailer motorcycle evehicle custom1 custom2" speed="15.71" length="17.91" shape="299.18,308.68 297.37,303.61 296.35,299.78 294.57,296.68 290.48,293.82"/>
    </edge>
    <edge id=":cluster_535172820_535172822_1" function="internal">
        <lane id=":cluster_535172820_535172822_1_0" index="0" allow="private emergency authority army vip passenger hov taxi bus coach delivery truck trailer motorcycle evehicle custom1 custom2" speed="13.89" length="37.97" shape="299.18,308.68 297.03,300.30 296.20,289.98 295.67,279.56 294.41,270.86"/>
        <lane id=":cluster_535172820_535172822_1_1" index="1" allow="private emergency authority army vip passenger hov taxi bus coach delivery truck trailer motorcycle evehicle custom1 custom2" speed="13.89" length="37.97" shape="302.08,307.33 299.96,299.03 299.20,288.89 298.73,278.64 297.50,270.01"/>
    </edge>
    <edge id=":cluster_535172820_535172822_3" function="internal">
        <lane id=":cluster_535172820_535172822_3_0" index="0" allow="private emergency authority army vip passenger hov taxi bus coach delivery truck trailer motorcycle evehicle custom1 custom2" speed="13.17" length="35.53" shape="302.08,307.33 298.42,296.88 297.87,288.05 300.42,280.84 306.08,275.24"/>
    </edge>
    <edge id=":cluster_535172820_535172822_4" function="internal">
        <lane id=":cluster_535172820_535172822_4_0" index="0" disallow="pedestrian tram rail_urban rail rail_electric rail_fast ship" speed="6.30" length="9.53" shape="290.24,277.67 292.70,277.05 294.22,275.71 294.79,273.64 294.41,270.86"/>
    </edge>
    <edge id=":cluster_535172820_535172822_5" function="internal">
        <lane id=":cluster_535172820_535172822_5_0" index="0" disallow="tram rail_urban rail rail_electric rail_fast ship" speed="19.01" length="16.05" shape="290.24,277.67 294.70,277.18 297.73,276.43 300.53,275.02 304.31,272.57"/>
        <lane id=":cluster_535172820_535172822_5_1" index="1" disallow="tram rail_urban rail rail_electric rail_fast ship" speed="19.97" length="16.05" shape="290.52,280.86 295.46,280.31 298.81,279.49 301.90,277.94 306.08,275.24"/>
    </edge>
    <edge id=":cluster_535172820_535172822_7" function="internal">
        <lane id=":cluster_535172820_535172822_7_0" index="0" disallow="pedestrian tram rail_urban rail rail_electric rail_fast ship" speed="7.27" length="11.70" shape="289.93,307.00 291.42,303.44 291.77,300.53 290.98,298.28 289.04,296.68"/>
    </edge>
    <edge id=":cluster_535172820_535172822_8" function="internal">
        <lane id=":cluster_535172820_535172822_8_0" index="0" disallow="pedestrian tram rail_urban rail rail_electric rail_fast ship" speed="13.89" length="36.98" shape="289.93,307.00 292.98,298.98 294.91,289.23 295.48,279.33 294.41,270.86"/>
        <lane id=":cluster_535172820_535172822_8_1" index="1" disallow="pedestrian tram rail_urban rail rail_electric rail_fast ship" speed="13.89" length="39.31" shape="292.75,308.50 295.84,300.12 297.87,289.56 298.52,278.86 297.50,270.01"/>
    </edge>
    <edge id=":cluster_535172820_535172822_10" function="internal">
        <lane id=":cluster_535172820_535172822_10_0" index="0" disallow="pedestrian tram rail_urban rail rail_electric rail_fast ship" speed="16.66" length="36.27" shape="292.75,308.50 295.64,300.36 298.05,290.63 301.14,281.53 306.08,275.24"/>
    </edge>
    <edge id=":cluster_535172827_535173993_0" function="internal">
        <lane id=":cluster_535172827_535173993_0_0" index="0" disallow="pedestrian tram rail_urban rail rail_electric rail_fast ship" speed="7.44" length="13.28" shape="223.87,288.01 221.11,289.57 219.74,291.93 219.76,295.10 221.18,299.06"/>
    </edge>
    <edge id=":cluster_535172827_535173993_1" function="internal">
        <lane id=":cluster_535172827_535173993_1_0" index="0" disallow="tram rail_urban rail rail_electric rail_fast ship" speed="16.21" length="17.69" shape="223.87,288.01 219.38,289.83 216.64,291.82 214.45,294.55 211.60,298.61"/>
        <lane id=":cluster_535172827_535173993_1_1" index="1" disallow="tram rail_urban rail rail_electric rail_fast ship" speed="17.14" length="17.69" shape="222.85,284.97 217.81,287.00 214.71,289.18 212.22,292.20 209.01,296.73"/>
    </edge>
    <edge id=":cluster_535172827_535173993_3" function="internal">
        <lane id=":cluster_535172827_535173993_3_0" index="0" disallow="pedestrian tram rail_urban rail rail_electric rail_fast ship" speed="6.27" length="10.45" shape="225.57,262.16 223.94,264.66 223.74,266.84 224.97,268.68 227.63,270.20"/>
    </edge>
    <edge id=":cluster_535172827_535173993_4" function="internal">
        <lane id=":cluster_535172827_535173993_4_0" index="0" disallow="pedestrian tram rail_urban rail rail_electric rail_fast ship" speed="13.89" length="39.60" shape="225.57,262.16 219.91,270.59 217.29,279.55 217.72,289.04 221.18,299.06"/>
        <lane id=":cluster_535172827_535173993_4_1" index="1" disallow="pedestrian tram rail_urban rail rail_electric rail_fast ship" speed="13.89" length="41.04" shape="222.74,260.57 217.66,271.55 215.18,281.74 215.28,291.15 217.97,299.78"/>
    </edge>
    <edge id=":cluster_535172827_535173993_6" function="internal">
        <lane id=":cluster_535172827_535173993_6_0" index="0" disallow="pedestrian tram rail_urban rail rail_electric rail_fast ship" speed="16.66" length="38.76" shape="222.74,260.57 219.36,268.76 216.25,278.89 212.95,288.89 209.01,296.73"/>
    </edge>
    <edge id=":cluster_535172827_535173993_7" function="internal">
        <lane id=":cluster_535172827_535173993_7_0" index="0" disallow="tram rail_urban rail rail_electric rail_fast ship" speed="20.39" length="16.49" shape="215.58,261.27 218.43,265.29 220.17,268.39 222.32,270.91 226.44,273.17"/>
    </edge>
    <edge id=":cluster_535172827_535173993_8" function="internal">
        <lane id=":cluster_535172827_535173993_8_0" index="0" disallow="pedestrian tram rail_urban rail rail_electric rail_fast ship" speed="15.28" length="37.84" shape="215.58,261.27 218.58,269.12 219.18,279.64 219.38,290.43 221.18,299.06"/>
        <lane id=":cluster_535172827_535173993_8_1" index="1" disallow="pedestrian tram rail_urban rail rail_electric rail_fast ship" speed="15.28" length="37.84" shape="213.14,263.35 216.03,270.98 216.36,281.04 216.29,291.36 217.97,299.78"/>
    </edge>
    <edge id=":cluster_535172827_535173993_10" function="internal">
        <lane id=":cluster_535172827_535173993_10_0" index="0" disallow="tram rail_urban rail rail_electric rail_fast ship" speed="13.81" length="36.41" shape="213.14,263.35 216.97,270.21 217.56,278.07 214.90,286.90 209.01,296.73"/>
    </edge>

    <edge id="1026251473" from="cluster_535172827_535173993" to="cluster_535172820_535172822" name="Tuas Circus" priority="12" type="highway.primary" spreadType="center" shape="219.94,268.84 233.93,274.45 249.72,277.72 271.23,280.98 298.17,278.57">
        <lane id="1026251473_0" index="0" disallow="tram rail_urban rail rail_electric rail_fast ship" speed="27.78" length="64.54" shape="227.63,270.20 234.39,272.91 250.00,276.14 271.28,279.37 290.24,277.67">
            <param key="origId" value="1026251473"/>
        </lane>
        <lane id="1026251473_1" index="1" disallow="tram rail_urban rail rail_electric rail_fast ship" speed="27.78" length="64.54" shape="226.44,273.17 233.47,275.99 249.44,279.30 271.18,282.59 290.52,280.86">
            <param key="origId" value="1026251473"/>
        </lane>
        <param key="origFrom" value="535172827"/>
        <param key="origTo" value="535172822"/>
    </edge>
    <edge id="1026251474" from="cluster_535172820_535172822" to="cluster_535172827_535173993" name="Tuas Circus" priority="12" type="highway.primary" spreadType="center" shape="296.24,298.53 283.13,291.89 230.19,284.19 216.85,288.68">
        <lane id="1026251474_0" index="0" disallow="tram rail_urban rail rail_electric rail_fast ship" speed="27.78" length="68.14" shape="289.04,296.68 282.64,293.44 230.34,285.83 223.87,288.01">
            <param key="origId" value="1026251474"/>
        </lane>
        <lane id="1026251474_1" index="1" disallow="tram rail_urban rail rail_electric rail_fast ship" speed="27.78" length="68.14" shape="290.48,293.82 283.62,290.34 230.04,282.55 222.85,284.97">
            <param key="origId" value="1026251474"/>
        </lane>
        <param key="origFrom" value="535172820"/>
        <param key="origTo" value="535173993"/>
    </edge>
    <edge id="119681286" from="1343819043" to="1343819030" name="Upper Jurong Road" priority="12" type="highway.primary" spreadType="center" shape="281.14,332.77 360.41,455.13 442.85,574.41">
        <lane id="119681286_0" index="0" disallow="tram rail_urban rail rail_electric rail_fast ship" speed="19.44" length="290.58" shape="283.94,331.21 363.07,453.35 445.48,572.59">
            <param key="origId" value="119681286"/>
        </lane>
        <lane id="119681286_1" index="1" disallow="tram rail_urban rail rail_electric rail_fast ship" speed="19.44" length="290.58" shape="281.26,332.95 360.41,455.13 442.85,574.41">
            <param key="origId" value="119681286"/>
        </lane>
        <lane id="119681286_2" index="2" disallow="tram rail_urban rail rail_electric rail_fast ship" speed="19.44" length="290.58" shape="278.57,334.69 357.75,456.91 440.22,576.23">
            <param key="origId" value="119681286"/>
        </lane>
    </edge>
    <edge id="119681291" from="1343819070" to="1343819084" name="Tuas Road" priority="12" type="highway.primary" spreadType="center">
        <lane id="119681291_0" index="0" disallow="tram rail_urban rail rail_electric rail_fast ship" speed="16.67" length="109.89" shape="290.11,326.68 228.74,235.52">
            <param key="origId" value="119681291"/>
        </lane>
        <lane id="119681291_1" index="1" disallow="tram rail_urban rail rail_electric rail_fast ship" speed="16.67" length="109.89" shape="292.76,324.89 231.39,233.73">
            <param key="origId" value="119681291"/>
        </lane>
        <lane id="119681291_2" index="2" disallow="tram rail_urban rail rail_electric rail_fast ship" speed="16.67" length="109.89" shape="295.42,323.11 234.04,231.94">
            <param key="origId" value="119681291"/>
        </lane>
    </edge>
    <edge id="15775493" from="535173999" to="890662179" priority="9" type="highway.motorway_link" spreadType="center">
        <lane id="15775493_0" index="0" allow="private emergency authority army vip passenger hov taxi bus coach delivery truck trailer motorcycle evehicle custom1 custom2" speed="13.89" length="75.80" shape="266.19,329.48 305.77,394.12">
            <param key="origId" value="15775493"/>
        </lane>
        <lane id="15775493_1" index="1" allow="private emergency authority army vip passenger hov taxi bus coach delivery truck trailer motorcycle evehicle custom1 custom2" speed="13.89" length="75.80" shape="263.46,331.15 303.05,395.80">
            <param key="origId" value="15775493"/>
        </lane>
    </edge>
    <edge id="42797764" from="cluster_535172827_535173993" to="567844728" name="Tuas Circus" priority="12" type="highway.primary" spreadType="center" shape="216.85,288.68 218.90,298.03 223.07,306.64 229.15,314.06 236.81,319.85 245.62,323.71 255.09,325.42">
        <lane id="42797764_0" index="0" disallow="pedestrian tram rail_urban rail rail_electric rail_fast ship" speed="13.89" length="39.21" shape="221.18,299.06 224.43,305.77 230.27,312.90 237.62,318.46 246.09,322.17 248.25,322.56">
            <param key="origId" value="42797764"/>
        </lane>
        <lane id="42797764_1" index="1" disallow="pedestrian tram rail_urban rail rail_electric rail_fast ship" speed="13.89" length="39.21" shape="217.97,299.78 221.71,307.51 228.03,315.22 236.00,321.24 245.15,325.25 247.68,325.71">
            <param key="origId" value="42797764"/>
        </lane>
        <param key="origFrom" value="535173993"/>
    </edge>
    <edge id="428897150" from="1343819073" to="1343819070" name="Upper Jurong Road" priority="12" type="highway.primary" spreadType="center" shape="459.12,563.66 373.25,449.18 292.84,325.01">
        <lane id="428897150_0" index="0" disallow="tram rail_urban rail rail_electric rail_fast ship" speed="19.44" length="290.90" shape="456.56,565.58 370.62,451.01 290.23,326.87">
            <param key="origId" value="428897150"/>
        </lane>
        <lane id="428897150_1" index="1" disallow="tram rail_urban rail rail_electric rail_fast ship" speed="19.44" length="290.90" shape="459.12,563.66 373.25,449.18 292.92,325.13">
            <param key="origId" value="428897150"/>
        </lane>
        <lane id="428897150_2" index="2" disallow="tram rail_urban rail rail_electric rail_fast ship" speed="19.44" length="290.90" shape="461.68,561.74 375.88,447.35 295.60,323.39">
            <param key="origId" value="428897150"/>
        </lane>
    </edge>
    <edge id="44638506#0" from="cluster_535172820_535172822" to="567844639" name="Jalan Ahmad Ibrahim" priority="12" type="highway.primary" spreadType="center" shape="298.17,278.57 307.81,272.17 310.95,270.05 335.61,253.40">
        <lane id="44638506#0_0" index="0" disallow="tram rail_urban rail rail_electric rail_fast ship" speed="19.44" length="25.32" shape="304.31,272.57 306.92,270.84 310.05,268.72 325.30,258.43">
            <param key="origId" value="44638506"/>
        </lane>
        <lane id="44638506#0_1" index="1" disallow="tram rail_urban rail rail_electric rail_fast ship" speed="19.44" length="25.32" shape="306.08,275.24 308.70,273.50 311.85,271.38 327.09,261.08">
            <param key="origId" value="44638506"/>
        </lane>
        <param key="origFrom" value="535172822"/>
    </edge>
    <edge id="44638506#1" from="567844639" to="5222212928" name="Jalan Ahmad Ibrahim" priority="12" type="highway.primary" spreadType="center" shape="335.61,253.40 392.68,226.28 427.27,214.69 443.37,210.90">
        <lane id="44638506#1_0" index="0" disallow="tram rail_urban rail rail_electric rail_fast ship" speed="19.44" length="115.06" shape="335.96,251.46 392.08,224.79 426.83,213.15 443.00,209.34">
            <param key="origId" value="44638506"/>
        </lane>
        <lane id="44638506#1_1" index="1" disallow="tram rail_urban rail rail_electric rail_fast ship" speed="19.44" length="115.06" shape="337.33,254.35 393.28,227.77 427.71,216.23 443.74,212.46">
            <param key="origId" value="44638506"/>
        </lane>
    </edge>
    <edge id="44776079" from="567844661" to="567844657" name="Ayer Rajah Expressway" priority="14" type="highway.motorway" spreadType="center" shape="315.89,229.04 281.04,254.74 246.07,289.60 192.82,344.78">
        <lane id="44776079_0" index="0" allow="private emergency authority army vip passenger hov taxi bus coach delivery truck trailer motorcycle evehicle custom1 custom2" speed="22.22" length="169.36" shape="317.79,231.62 283.13,257.17 248.35,291.84 195.12,347.00">
            <param key="origId" value="44776079"/>
        </lane>
        <lane id="44776079_1" index="1" allow="private emergency authority army vip passenger hov taxi bus coach delivery truck trailer motorcycle evehicle custom1 custom2" speed="22.22" length="169.36" shape="315.89,229.04 281.04,254.74 246.07,289.60 192.82,344.78">
            <param key="origId" value="44776079"/>
        </lane>
        <lane id="44776079_2" index="2" allow="private emergency authority army vip passenger hov taxi bus coach delivery truck trailer motorcycle evehicle custom1 custom2" speed="22.22" length="169.36" shape="313.99,226.46 278.95,252.31 243.79,287.36 190.52,342.56">
            <param key="origId" value="44776079"/>
        </lane>
        <param key="ref" value="AYE"/>
    </edge>
    <edge id="44776087" from="567844707" to="148144501" name="Ayer Rajah Expressway" priority="14" type="highway.motorway" spreadType="center" shape="204.53,356.42 257.50,301.80 292.90,268.25 325.96,242.87">
        <lane id="44776087_0" index="0" allow="private emergency authority army vip passenger hov taxi bus coach delivery truck trailer motorcycle evehicle custom1 custom2" speed="22.22" length="166.54" shape="202.23,354.19 255.25,299.52 290.82,265.81 324.01,240.33">
            <param key="origId" value="44776087"/>
        </lane>
        <lane id="44776087_1" index="1" allow="private emergency authority army vip passenger hov taxi bus coach delivery truck trailer motorcycle evehicle custom1 custom2" speed="22.22" length="166.54" shape="204.53,356.42 257.50,301.80 292.90,268.25 325.96,242.87">
            <param key="origId" value="44776087"/>
        </lane>
        <lane id="44776087_2" index="2" allow="private emergency authority army vip passenger hov taxi bus coach delivery truck trailer motorcycle evehicle custom1 custom2" speed="22.22" length="166.54" shape="206.83,358.65 259.75,304.08 294.98,270.69 327.91,245.41">
            <param key="origId" value="44776087"/>
        </lane>
        <param key="ref" value="AYE"/>
    </edge>
    <edge id="465664194" from="cluster_535172827_535173993" to="535172831" name="Jalan Ahmad Ibrahim" priority="12" type="highway.primary" spreadType="center" shape="216.85,288.68 203.64,306.83 200.98,310.49 192.01,321.07 98.39,425.70">
        <lane id="465664194_0" index="0" disallow="tram rail_urban rail rail_electric rail_fast ship" speed="19.44" length="170.13" shape="211.60,298.61 204.93,307.77 202.24,311.48 193.22,322.12 99.58,426.77">
            <param key="origId" value="465664194"/>
        </lane>