<?xml version="1.0" encoding="UTF-8"?>

<!-- generated on 2023-07-17 11:20:39 by Eclipse SUMO netconvert Version 1.17.0
<configuration xmlns:xsi="http://www.w3.org/2001/XMLSchema-instance" xsi:noNamespaceSchemaLocation="http://sumo.dlr.de/xsd/netconvertConfiguration.xsd">

    <input>
        <sumo-net-file value="osm.net.xml.gz"/>
    </input>

    <output>
        <output-file value="osm.net.xml"/>
        <output.street-names value="true"/>
    </output>

    <processing>
        <geometry.min-radius.fix.railways value="false"/>
        <geometry.max-grade.fix value="false"/>
        <offset.disable-normalization value="true"/>
        <lefthand value="1"/>
    </processing>

    <junctions>
        <no-turnarounds value="true"/>
        <junctions.corner-detail value="5"/>
        <junctions.limit-turn-speed value="5.50"/>
        <rectangular-lane-cut value="0"/>
    </junctions>

    <pedestrian>
        <walkingareas value="0"/>
    </pedestrian>

</configuration>
-->

<net version="1.16" junctionCornerDetail="5" lefthand="true" limitTurnSpeed="5.50" xmlns:xsi="http://www.w3.org/2001/XMLSchema-instance" xsi:noNamespaceSchemaLocation="http://sumo.dlr.de/xsd/net_file.xsd">

    <location netOffset="-378019.75,-145591.79" convBoundary="0.00,0.00,325.75,316.26" origBoundary="103.903573,1.316970,103.906501,1.319831" projParameter="+proj=utm +zone=48 +ellps=WGS84 +datum=WGS84 +units=m +no_defs"/>

    <type id="highway.bridleway" priority="1" numLanes="1" speed="2.78" allow="pedestrian" oneway="1" width="2.00"/>
    <type id="highway.bus_guideway" priority="1" numLanes="1" speed="27.78" allow="bus" oneway="1"/>
    <type id="highway.cycleway" priority="1" numLanes="1" speed="5.56" allow="bicycle" oneway="0" width="1.00"/>
    <type id="highway.footway" priority="1" numLanes="1" speed="2.78" allow="pedestrian" oneway="1" width="2.00"/>
    <type id="highway.ford" priority="1" numLanes="1" speed="2.78" allow="army" oneway="0"/>
    <type id="highway.living_street" priority="2" numLanes="1" speed="2.78" disallow="tram rail_urban rail rail_electric rail_fast ship" oneway="0"/>
    <type id="highway.motorway" priority="14" numLanes="2" speed="39.44" allow="private emergency authority army vip passenger hov taxi bus coach delivery truck trailer motorcycle evehicle custom1 custom2" oneway="1"/>
    <type id="highway.motorway_link" priority="9" numLanes="1" speed="22.22" allow="private emergency authority army vip passenger hov taxi bus coach delivery truck trailer motorcycle evehicle custom1 custom2" oneway="1"/>
    <type id="highway.path" priority="1" numLanes="1" speed="5.56" allow="pedestrian bicycle" oneway="0" width="2.00"/>
    <type id="highway.pedestrian" priority="1" numLanes="1" speed="2.78" allow="pedestrian" oneway="1" width="2.00"/>
    <type id="highway.primary" priority="12" numLanes="2" speed="27.78" disallow="tram rail_urban rail rail_electric rail_fast ship" oneway="0"/>
    <type id="highway.primary_link" priority="7" numLanes="1" speed="22.22" disallow="tram rail_urban rail rail_electric rail_fast ship" oneway="0"/>
    <type id="highway.raceway" priority="15" numLanes="2" speed="83.33" allow="vip" oneway="0"/>
    <type id="highway.residential" priority="3" numLanes="1" speed="13.89" disallow="tram rail_urban rail rail_electric rail_fast ship" oneway="0"/>
    <type id="highway.secondary" priority="11" numLanes="1" speed="27.78" disallow="tram rail_urban rail rail_electric rail_fast ship" oneway="0"/>
    <type id="highway.secondary_link" priority="6" numLanes="1" speed="22.22" disallow="tram rail_urban rail rail_electric rail_fast ship" oneway="0"/>
    <type id="highway.service" priority="1" numLanes="1" speed="5.56" allow="pedestrian delivery bicycle" oneway="0"/>
    <type id="highway.stairs" priority="1" numLanes="1" speed="1.39" allow="pedestrian" oneway="1" width="2.00"/>
    <type id="highway.step" priority="1" numLanes="1" speed="1.39" allow="pedestrian" oneway="1" width="2.00"/>
    <type id="highway.steps" priority="1" numLanes="1" speed="1.39" allow="pedestrian" oneway="1" width="2.00"/>
    <type id="highway.tertiary" priority="10" numLanes="1" speed="22.22" disallow="tram rail_urban rail rail_electric rail_fast ship" oneway="0"/>
    <type id="highway.tertiary_link" priority="5" numLanes="1" speed="22.22" disallow="tram rail_urban rail rail_electric rail_fast ship" oneway="0"/>
    <type id="highway.track" priority="1" numLanes="1" speed="5.56" allow="pedestrian motorcycle moped bicycle" oneway="0"/>
    <type id="highway.trunk" priority="13" numLanes="2" speed="27.78" disallow="pedestrian bicycle tram rail_urban rail rail_electric rail_fast ship" oneway="0"/>
    <type id="highway.trunk_link" priority="8" numLanes="1" speed="22.22" disallow="pedestrian bicycle tram rail_urban rail rail_electric rail_fast ship" oneway="0"/>
    <type id="highway.unclassified" priority="4" numLanes="1" speed="13.89" disallow="tram rail_urban rail rail_electric rail_fast ship" oneway="0"/>
    <type id="highway.unsurfaced" priority="1" numLanes="1" speed="8.33" disallow="tram rail_urban rail rail_electric rail_fast ship" oneway="0"/>
    <type id="railway.highspeed" priority="21" numLanes="1" speed="69.44" allow="rail_fast" oneway="1"/>
    <type id="railway.light_rail" priority="19" numLanes="1" speed="27.78" allow="rail_urban" oneway="1"/>
    <type id="railway.preserved" priority="16" numLanes="1" speed="27.78" allow="rail" oneway="1"/>
    <type id="railway.rail" priority="20" numLanes="1" speed="44.44" allow="rail" oneway="1"/>
    <type id="railway.subway" priority="18" numLanes="1" speed="27.78" allow="rail_urban" oneway="1"/>
    <type id="railway.tram" priority="17" numLanes="1" speed="13.89" allow="tram" oneway="1"/>

    <edge id=":175259240_0" function="internal">
        <lane id=":175259240_0_0" index="0" disallow="tram rail_urban rail rail_electric rail_fast ship" speed="6.44" length="8.87" shape="101.88,46.95 99.65,46.12 98.22,44.75 97.60,42.83 97.79,40.35"/>
    </edge>
    <edge id=":175259240_1" function="internal">
        <lane id=":175259240_1_0" index="0" disallow="tram rail_urban rail rail_electric rail_fast ship" speed="13.89" length="14.17" shape="101.88,46.95 88.01,44.07"/>
        <lane id=":175259240_1_1" index="1" disallow="tram rail_urban rail rail_electric rail_fast ship" speed="13.89" length="14.17" shape="101.23,50.08 87.36,47.20"/>
        <lane id=":175259240_1_2" index="2" disallow="tram rail_urban rail rail_electric rail_fast ship" speed="13.89" length="14.17" shape="100.58,53.21 86.71,50.33"/>
        <lane id=":175259240_1_3" index="3" disallow="tram rail_urban rail rail_electric rail_fast ship" speed="13.89" length="14.17" shape="99.93,56.35 86.06,53.47"/>
    </edge>
    <edge id=":175259240_5" function="internal">
        <lane id=":175259240_5_0" index="0" allow="bus bicycle" speed="3.65" length="1.44" shape="99.93,56.35 98.60,56.88"/>
    </edge>
    <edge id=":175259240_9" function="internal">
        <lane id=":175259240_9_0" index="0" allow="bus bicycle" speed="3.65" length="3.23" shape="98.60,56.88 98.04,57.59 98.27,58.45 99.28,59.48"/>
    </edge>
    <edge id=":175259240_6" function="internal">
        <lane id=":175259240_6_0" index="0" allow="bus bicycle" speed="13.89" length="14.17" shape="85.41,56.60 99.28,59.48"/>
    </edge>
    <edge id=":175259240_7" function="internal">
        <lane id=":175259240_7_0" index="0" allow="bus bicycle" speed="9.57" length="1.75" shape="85.41,56.60 87.09,56.13"/>
    </edge>
    <edge id=":175259240_8" function="internal">
        <lane id=":175259240_8_0" index="0" allow="bus bicycle" speed="3.65" length="1.44" shape="85.41,56.60 86.74,56.06"/>
    </edge>
    <edge id=":175259240_10" function="internal">
        <lane id=":175259240_10_0" index="0" allow="bus bicycle" speed="9.57" length="18.46" shape="87.09,56.13 87.82,55.93 90.16,52.91 92.43,47.53 94.63,39.79"/>
    </edge>
    <edge id=":175259240_11" function="internal">
        <lane id=":175259240_11_0" index="0" allow="bus bicycle" speed="3.65" length="3.23" shape="86.74,56.06 87.30,55.36 87.07,54.49 86.06,53.47"/>
    </edge>
    <edge id=":1815610542_0" function="internal">
        <lane id=":1815610542_0_0" index="0" allow="bus bicycle" speed="3.65" length="4.67" shape="0.34,216.11 -1.00,216.63 -1.56,217.33 -1.34,218.20 -0.34,219.23"/>
    </edge>
    <edge id=":230866446_0" function="internal">
        <lane id=":230866446_0_0" index="0" disallow="pedestrian bicycle tram rail_urban rail rail_electric rail_fast ship" speed="16.67" length="24.85" shape="171.11,266.73 170.60,259.43 170.51,254.42 170.72,249.40 171.13,242.08"/>
        <lane id=":230866446_0_1" index="1" disallow="pedestrian bicycle tram rail_urban rail rail_electric rail_fast ship" speed="16.67" length="24.85" shape="167.90,266.79 167.39,259.46 167.30,254.42 167.52,249.38 167.93,242.03"/>
        <lane id=":230866446_0_2" index="2" disallow="pedestrian bicycle tram rail_urban rail rail_electric rail_fast ship" speed="16.67" length="24.85" shape="164.69,266.85 164.18,259.48 164.09,254.43 164.31,249.37 164.73,241.99"/>
        <lane id=":230866446_0_3" index="3" disallow="pedestrian bicycle tram rail_urban rail rail_electric rail_fast ship" speed="16.67" length="24.85" shape="161.49,266.91 160.97,259.51 160.89,254.43 161.11,249.35 161.52,241.94"/>
    </edge>
    <edge id=":230866446_4" function="internal">
        <lane id=":230866446_4_0" index="0" disallow="pedestrian tram rail_urban rail rail_electric rail_fast ship" speed="16.67" length="20.46" shape="156.07,259.92 176.23,261.78"/>
        <lane id=":230866446_4_1" index="1" disallow="pedestrian tram rail_urban rail rail_electric rail_fast ship" speed="16.67" length="20.46" shape="156.54,256.76 176.84,258.64"/>
        <lane id=":230866446_4_2" index="2" disallow="pedestrian tram rail_urban rail rail_electric rail_fast ship" speed="16.67" length="20.46" shape="157.00,253.59 177.45,255.50"/>
        <lane id=":230866446_4_3" index="3" disallow="pedestrian tram rail_urban rail rail_electric rail_fast ship" speed="16.67" length="20.46" shape="157.47,250.42 178.06,252.36"/>
    </edge>
    <edge id=":230866446_8" function="internal">
        <lane id=":230866446_8_0" index="0" disallow="pedestrian bicycle tram rail_urban rail rail_electric rail_fast ship" speed="6.61" length="10.03" shape="157.94,247.26 160.79,247.29 162.87,246.42 164.18,244.65 164.73,241.99"/>
        <lane id=":230866446_8_1" index="1" disallow="pedestrian bicycle tram rail_urban rail rail_electric rail_fast ship" speed="5.74" length="7.30" shape="157.94,247.26 159.40,247.11 160.48,246.17 161.19,244.45 161.52,241.94"/>
    </edge>
    <edge id=":230887160_0" function="internal">
        <lane id=":230887160_0_0" index="0" allow="bus" speed="6.27" length="9.27" shape="145.31,240.72 144.98,244.68 144.55,247.46 144.01,249.07 143.37,249.51"/>
    </edge>
    <edge id=":230887160_1" function="internal">
        <lane id=":230887160_1_0" index="0" disallow="pedestrian bicycle tram rail_urban rail rail_electric rail_fast ship" speed="16.67" length="27.87" shape="145.31,240.72 145.90,268.72"/>
        <lane id=":230887160_1_1" index="1" disallow="pedestrian bicycle tram rail_urban rail rail_electric rail_fast ship" speed="16.67" length="27.87" shape="148.51,240.92 149.10,268.78"/>
        <lane id=":230887160_1_2" index="2" disallow="pedestrian bicycle tram rail_urban rail rail_electric rail_fast ship" speed="16.67" length="27.87" shape="151.70,241.11 152.30,268.84"/>
    </edge>
    <edge id=":230887160_4" function="internal">
        <lane id=":230887160_4_0" index="0" disallow="pedestrian bicycle tram rail_urban rail rail_electric rail_fast ship" speed="7.90" length="12.89" shape="154.90,241.30 154.74,246.52 155.01,250.30 155.70,252.65 156.81,253.56"/>
        <lane id=":230887160_4_1" index="1" disallow="pedestrian bicycle tram rail_urban rail rail_electric rail_fast ship" speed="7.03" length="10.00" shape="154.90,241.30 154.85,245.12 155.23,247.91 156.04,249.67 157.27,250.39"/>
        <lane id=":230887160_4_2" index="2" disallow="pedestrian bicycle tram rail_urban rail rail_electric rail_fast ship" speed="6.08" length="7.24" shape="154.90,241.30 154.95,243.72 155.44,245.51 156.37,246.68 157.74,247.23"/>
    </edge>
    <edge id=":230887160_7" function="internal">
        <lane id=":230887160_7_0" index="0" disallow="pedestrian tram rail_urban rail rail_electric rail_fast ship" speed="16.67" length="16.98" shape="139.98,265.13 144.75,264.90 147.89,262.73 151.05,260.45 155.87,259.89"/>
        <lane id=":230887160_7_1" index="1" disallow="pedestrian tram rail_urban rail rail_electric rail_fast ship" speed="16.67" length="16.98" shape="140.66,262.01 145.37,261.76 148.46,259.58 151.57,257.29 156.34,256.73"/>
        <lane id=":230887160_7_2" index="2" disallow="pedestrian tram rail_urban rail rail_electric rail_fast ship" speed="16.67" length="16.98" shape="141.34,258.88 145.99,258.62 149.03,256.43 152.10,254.14 156.81,253.56"/>
        <lane id=":230887160_7_3" index="3" disallow="pedestrian tram rail_urban rail rail_electric rail_fast ship" speed="16.67" length="16.98" shape="142.01,255.75 146.60,255.48 149.60,253.29 152.62,250.98 157.27,250.39"/>
        <lane id=":230887160_7_4" index="4" disallow="pedestrian tram rail_urban rail rail_electric rail_fast ship" speed="16.67" length="16.98" shape="142.69,252.62 147.22,252.34 150.18,250.14 153.15,247.82 157.74,247.23"/>
    </edge>
    <edge id=":230887160_12" function="internal">
        <lane id=":230887160_12_0" index="0" allow="bus bicycle" speed="3.65" length="4.65" shape="142.69,252.62 144.03,252.10 144.59,251.40 144.37,250.54 143.37,249.51"/>
    </edge>
    <edge id=":2426216913_0" function="internal">
        <lane id=":2426216913_0_0" index="0" disallow="pedestrian bicycle tram rail_urban rail rail_electric rail_fast ship" speed="9.51" length="9.02" shape="145.81,52.03 143.89,53.38 142.47,54.34 140.97,54.80 138.77,54.60"/>
        <lane id=":2426216913_0_1" index="1" disallow="pedestrian bicycle tram rail_urban rail rail_electric rail_fast ship" speed="10.79" length="9.02" shape="145.81,52.03 143.55,54.13 142.20,56.20 140.73,57.61 138.12,57.73"/>
    </edge>
    <edge id=":2426216913_2" function="internal">
        <lane id=":2426216913_2_0" index="0" allow="bus" speed="7.86" length="22.12" shape="145.81,52.03 140.92,56.45 138.53,61.51 139.34,65.99 144.01,68.67"/>
    </edge>
    <edge id=":2426216913_3" function="internal">
        <lane id=":2426216913_3_0" index="0" disallow="tram rail_urban rail rail_electric rail_fast ship" speed="13.89" length="7.95" shape="146.55,56.13 138.77,54.60"/>
        <lane id=":2426216913_3_1" index="1" disallow="tram rail_urban rail rail_electric rail_fast ship" speed="13.89" length="7.95" shape="145.92,59.26 138.12,57.73"/>
        <lane id=":2426216913_3_2" index="2" disallow="tram rail_urban rail rail_electric rail_fast ship" speed="13.89" length="7.95" shape="145.28,62.40 137.47,60.86"/>
        <lane id=":2426216913_3_3" index="3" disallow="tram rail_urban rail rail_electric rail_fast ship" speed="13.89" length="7.95" shape="144.64,65.54 136.82,64.00"/>
    </edge>
    <edge id=":2426216913_7" function="internal">
        <lane id=":2426216913_7_0" index="0" allow="bus bicycle" speed="3.65" length="1.44" shape="144.64,65.54 143.31,66.08"/>
    </edge>
    <edge id=":2426216913_10" function="internal">
        <lane id=":2426216913_10_0" index="0" allow="bus bicycle" speed="3.65" length="3.23" shape="143.31,66.08 142.76,66.79 142.99,67.65 144.01,68.67"/>
    </edge>
    <edge id=":2426216913_8" function="internal">
        <lane id=":2426216913_8_0" index="0" allow="bus bicycle" speed="13.89" length="7.99" shape="136.17,67.13 144.01,68.67"/>
    </edge>
    <edge id=":2426216913_9" function="internal">
        <lane id=":2426216913_9_0" index="0" allow="bus bicycle" speed="3.65" length="1.44" shape="136.17,67.13 137.51,66.59"/>
    </edge>
    <edge id=":2426216913_11" function="internal">
        <lane id=":2426216913_11_0" index="0" allow="bus bicycle" speed="3.65" length="3.23" shape="137.51,66.59 138.06,65.89 137.83,65.03 136.82,64.00"/>
    </edge>
    <edge id=":2427965735_0" function="internal">
        <lane id=":2427965735_0_0" index="0" allow="bus bicycle" speed="16.67" length="9.89" shape="193.84,260.49 191.04,259.80 189.26,258.81 187.49,257.76 184.71,256.90"/>
    </edge>
    <edge id=":2427965735_1" function="internal">
        <lane id=":2427965735_1_0" index="0" allow="bus bicycle" speed="3.65" length="1.33" shape="193.84,260.49 192.66,261.08"/>
    </edge>
    <edge id=":2427965735_10" function="internal">
        <lane id=":2427965735_10_0" index="0" allow="bus bicycle" speed="3.65" length="3.35" shape="192.66,261.08 192.55,261.13 192.05,261.88 192.35,262.72 193.44,263.67"/>
    </edge>
    <edge id=":2427965735_2" function="internal">
        <lane id=":2427965735_2_0" index="0" disallow="pedestrian bicycle tram rail_urban rail rail_electric rail_fast ship" speed="12.39" length="11.06" shape="182.58,275.49 185.22,274.02 187.18,273.20 189.25,272.94 192.22,273.19"/>
        <lane id=":2427965735_2_1" index="1" disallow="pedestrian bicycle tram rail_urban rail rail_electric rail_fast ship" speed="13.35" length="11.06" shape="182.58,275.49 185.19,273.50 187.11,271.57 189.27,270.22 192.62,270.02"/>
    </edge>
    <edge id=":2427965735_4" function="internal">
        <lane id=":2427965735_4_0" index="0" allow="bus" speed="8.20" length="24.90" shape="182.58,275.49 188.18,270.72 190.88,265.03 189.96,259.92 184.71,256.90"/>
    </edge>
    <edge id=":2427965735_5" function="internal">
        <lane id=":2427965735_5_0" index="0" disallow="tram rail_urban rail rail_electric rail_fast ship" speed="16.67" length="10.38" shape="182.29,269.47 185.29,270.38 187.23,271.45 189.18,272.46 192.22,273.19"/>
        <lane id=":2427965735_5_1" index="1" disallow="tram rail_urban rail rail_electric rail_fast ship" speed="16.67" length="10.38" shape="182.89,266.32 185.84,267.22 187.74,268.29 189.64,269.30 192.62,270.02"/>
        <lane id=":2427965735_5_2" index="2" disallow="tram rail_urban rail rail_electric rail_fast ship" speed="16.67" length="10.38" shape="183.50,263.18 186.39,264.07 188.24,265.13 190.11,266.13 193.03,266.84"/>
        <lane id=":2427965735_5_3" index="3" disallow="tram rail_urban rail rail_electric rail_fast ship" speed="16.67" length="10.38" shape="184.10,260.04 186.94,260.92 188.75,261.97 190.58,262.97 193.44,263.67"/>
    </edge>
    <edge id=":2427965735_9" function="internal">
        <lane id=":2427965735_9_0" index="0" allow="bus bicycle" speed="3.65" length="1.33" shape="184.10,260.04 185.33,259.53"/>
    </edge>
    <edge id=":2427965735_11" function="internal">
        <lane id=":2427965735_11_0" index="0" allow="bus bicycle" speed="3.65" length="3.35" shape="185.33,259.53 185.43,259.48 185.98,258.77 185.74,257.91 184.71,256.90"/>
    </edge>
    <edge id=":258088384_0" function="internal">
        <lane id=":258088384_0_0" index="0" allow="bus bicycle" speed="3.65" length="4.67" shape="24.51,40.71 23.18,41.25 22.62,41.96 22.85,42.82 23.87,43.85"/>
    </edge>
    <edge id=":4604283113_0" function="internal">
        <lane id=":4604283113_0_0" index="0" disallow="pedestrian bicycle tram rail_urban rail rail_electric rail_fast ship" speed="16.67" length="2.70" shape="145.90,268.92 145.93,269.82 146.04,270.43 146.18,271.04 146.31,271.94"/>
        <lane id=":4604283113_0_1" index="1" disallow="pedestrian bicycle tram rail_urban rail rail_electric rail_fast ship" speed="16.67" length="2.70" shape="149.10,268.98 149.13,269.77 149.24,270.31 149.38,270.85 149.49,271.64"/>
        <lane id=":4604283113_0_2" index="2" disallow="pedestrian bicycle tram rail_urban rail rail_electric rail_fast ship" speed="16.67" length="2.70" shape="152.30,269.03 152.33,269.72 152.44,270.19 152.57,270.65 152.68,271.34"/>
    </edge>
    <edge id=":4604283113_3" function="internal">
        <lane id=":4604283113_3_0" index="0" disallow="pedestrian bicycle tram rail_urban rail rail_electric rail_fast ship" speed="5.70" length="2.06" shape="143.01,270.28 143.30,270.75 143.28,271.16 143.16,271.62 143.12,272.24"/>
    </edge>
    <edge id=":4604283120_0" function="internal">
        <lane id=":4604283120_0_0" index="0" allow="bus bicycle" speed="16.67" length="1.72" shape="143.17,249.47 144.45,250.62"/>
    </edge>
    <edge id=":4604283120_1" function="internal">
        <lane id=":4604283120_1_0" index="0" allow="bus" speed="8.43" length="24.26" shape="143.17,249.47 137.27,250.52 135.85,255.78 138.01,263.06 140.97,267.37"/>
    </edge>
    <edge id=":4604283120_2" function="internal">
        <lane id=":4604283120_2_0" index="0" allow="bus bicycle" speed="3.65" length="2.32" shape="143.17,249.47 141.84,249.99 141.28,250.69"/>
    </edge>
    <edge id=":4604283120_10" function="internal">
        <lane id=":4604283120_10_0" index="0" allow="bus" speed="8.43" length="3.36" shape="140.97,267.37 142.87,270.14"/>
    </edge>
    <edge id=":4604283120_11" function="internal">
        <lane id=":4604283120_11_0" index="0" allow="bus bicycle" speed="3.65" length="2.32" shape="141.28,250.69 141.50,251.55 142.50,252.58"/>
    </edge>
    <edge id=":4604283120_3" function="internal">
        <lane id=":4604283120_3_0" index="0" disallow="pedestrian bicycle tram rail_urban rail rail_electric rail_fast ship" speed="8.05" length="3.30" shape="139.70,269.22 142.87,270.14"/>
    </edge>
    <edge id=":4604283120_4" function="internal">
        <lane id=":4604283120_4_0" index="0" disallow="tram rail_urban rail rail_electric rail_fast ship" speed="16.67" length="1.44" shape="140.49,266.12 139.79,265.09"/>
        <lane id=":4604283120_4_1" index="1" disallow="tram rail_urban rail rail_electric rail_fast ship" speed="16.67" length="1.44" shape="141.29,263.02 140.46,261.96"/>
        <lane id=":4604283120_4_2" index="2" disallow="tram rail_urban rail rail_electric rail_fast ship" speed="16.67" length="1.44" shape="142.08,259.92 141.14,258.84"/>
        <lane id=":4604283120_4_3" index="3" disallow="tram rail_urban rail rail_electric rail_fast ship" speed="16.67" length="1.44" shape="142.87,256.82 141.82,255.71"/>
        <lane id=":4604283120_4_4" index="4" disallow="tram rail_urban rail rail_electric rail_fast ship" speed="16.67" length="1.44" shape="143.66,253.72 142.50,252.58"/>
    </edge>
    <edge id=":4604283120_9" function="internal">
        <lane id=":4604283120_9_0" index="0" allow="bus bicycle" speed="3.65" length="2.34" shape="143.66,253.72 145.02,253.24 145.61,252.57"/>
    </edge>
    <edge id=":4604283120_12" function="internal">
        <lane id=":4604283120_12_0" index="0" allow="bus bicycle" speed="3.65" length="2.34" shape="145.61,252.57 145.42,251.69 144.45,250.62"/>
    </edge>
    <edge id=":4675595513_0" function="internal">
        <lane id=":4675595513_0_0" index="0" disallow="pedestrian bicycle tram rail_urban rail rail_electric rail_fast ship" speed="16.67" length="8.21" shape="155.21,138.14 154.79,140.51 154.13,142.07 153.46,143.62 153.03,145.99"/>
        <lane id=":4675595513_0_1" index="1" disallow="pedestrian bicycle tram rail_urban rail rail_electric rail_fast ship" speed="16.67" length="8.21" shape="158.40,138.37 157.98,140.74 157.32,142.30 156.65,143.86 156.22,146.23"/>
        <lane id=":4675595513_0_2" index="2" disallow="pedestrian bicycle tram rail_urban rail rail_electric rail_fast ship" speed="16.67" length="8.21" shape="161.60,138.60 161.18,140.97 160.51,142.53 159.84,144.09 159.41,146.47"/>
        <lane id=":4675595513_0_3" index="3" disallow="pedestrian bicycle tram rail_urban rail rail_electric rail_fast ship" speed="16.67" length="8.21" shape="161.60,138.60 161.67,141.01 162.11,142.65 162.54,144.30 162.61,146.71"/>
    </edge>
    <edge id=":5497782069_0" function="internal">
        <lane id=":5497782069_0_0" index="0" allow="bus bicycle" speed="3.65" length="4.67" shape="180.02,255.99 178.69,256.55 178.14,257.26 178.38,258.12 179.41,259.14"/>
    </edge>
    <edge id=":5497782069_1" function="internal">
        <lane id=":5497782069_1_0" index="0" disallow="tram rail_urban rail rail_electric rail_fast ship" speed="16.67" length="6.84" shape="176.43,261.82 177.59,268.56"/>
        <lane id=":5497782069_1_1" index="1" disallow="tram rail_urban rail rail_electric rail_fast ship" speed="16.67" length="6.84" shape="177.04,258.68 178.20,265.42"/>
        <lane id=":5497782069_1_2" index="2" disallow="tram rail_urban rail rail_electric rail_fast ship" speed="16.67" length="6.84" shape="177.65,255.54 178.80,262.28"/>
        <lane id=":5497782069_1_3" index="3" disallow="tram rail_urban rail rail_electric rail_fast ship" speed="16.67" length="6.84" shape="178.25,252.39 179.41,259.14"/>
    </edge>
    <edge id=":6138591635_0" function="internal">
        <lane id=":6138591635_0_0" index="0" disallow="pedestrian bicycle tram rail_urban rail rail_electric rail_fast ship" speed="16.67" length="8.04" shape="174.54,166.64 174.86,164.43 175.48,162.98 176.14,161.53 176.60,159.33"/>
        <lane id=":6138591635_0_1" index="1" disallow="pedestrian bicycle tram rail_urban rail rail_electric rail_fast ship" speed="16.67" length="8.04" shape="171.34,166.54 171.66,164.27 172.28,162.78 172.95,161.29 173.41,159.02"/>
        <lane id=":6138591635_0_2" index="2" disallow="pedestrian bicycle tram rail_urban rail rail_electric rail_fast ship" speed="16.67" length="8.04" shape="168.14,166.45 168.47,164.11 169.09,162.58 169.76,161.05 170.23,158.72"/>
        <lane id=":6138591635_0_3" index="3" disallow="pedestrian bicycle tram rail_urban rail rail_electric rail_fast ship" speed="16.67" length="8.04" shape="164.94,166.35 165.27,163.95 165.89,162.38 166.57,160.80 167.04,158.42"/>
        <lane id=":6138591635_0_4" index="4" disallow="pedestrian bicycle tram rail_urban rail rail_electric rail_fast ship" speed="16.67" length="8.04" shape="164.94,166.35 164.77,163.89 164.30,162.23 163.88,160.56 163.86,158.12"/>
    </edge>
    <edge id=":6189002538_0" function="internal">
        <lane id=":6189002538_0_0" index="0" allow="bus bicycle" speed="3.65" length="4.67" shape="311.47,279.20 312.76,278.56 313.27,277.82 312.98,276.98 311.89,276.02"/>
    </edge>
    <edge id=":6243359928_0" function="internal">
        <lane id=":6243359928_0_0" index="0" allow="bus bicycle" speed="16.67" length="8.11" shape="95.12,238.03 87.24,236.08"/>
    </edge>
    <edge id=":6243359928_1" function="internal">
        <lane id=":6243359928_1_0" index="0" disallow="tram rail_urban rail rail_electric rail_fast ship" speed="16.67" length="8.65" shape="83.51,251.64 85.74,252.69 86.94,254.11 88.14,255.55 90.37,256.63"/>
        <lane id=":6243359928_1_1" index="1" disallow="tram rail_urban rail rail_electric rail_fast ship" speed="16.67" length="8.65" shape="84.25,248.52 86.50,249.58 87.71,251.01 88.92,252.44 91.16,253.53"/>
        <lane id=":6243359928_1_2" index="2" disallow="tram rail_urban rail rail_electric rail_fast ship" speed="16.67" length="8.65" shape="85.00,245.41 87.26,246.47 88.48,247.90 89.70,249.34 91.95,250.43"/>
        <lane id=":6243359928_1_3" index="3" disallow="tram rail_urban rail rail_electric rail_fast ship" speed="16.67" length="8.65" shape="85.75,242.30 88.02,243.36 89.25,244.79 90.48,246.24 92.75,247.33"/>
        <lane id=":6243359928_1_4" index="4" disallow="tram rail_urban rail rail_electric rail_fast ship" speed="16.67" length="8.65" shape="86.50,239.19 88.78,240.25 90.02,241.69 91.26,243.13 93.54,244.23"/>
        <lane id=":6243359928_1_5" index="5" disallow="tram rail_urban rail rail_electric rail_fast ship" speed="16.67" length="8.65" shape="86.50,239.19 94.33,241.13"/>
    </edge>
    <edge id=":6243490933_0" function="internal">
        <lane id=":6243490933_0_0" index="0" allow="bus bicycle" speed="3.65" length="4.67" shape="325.51,99.22 326.81,98.61 327.33,97.88 327.06,97.03 325.99,96.06"/>
    </edge>
    <edge id=":6243564036_0" function="internal">
        <lane id=":6243564036_0_0" index="0" disallow="tram rail_urban rail rail_electric rail_fast ship" speed="16.67" length="8.60" shape="251.53,75.85 249.22,75.01 247.90,73.71 246.59,72.38 244.29,71.49"/>
        <lane id=":6243564036_0_1" index="1" disallow="tram rail_urban rail rail_electric rail_fast ship" speed="16.67" length="8.60" shape="251.07,79.02 248.74,78.18 247.41,76.87 246.09,75.54 243.76,74.65"/>
        <lane id=":6243564036_0_2" index="2" disallow="tram rail_urban rail rail_electric rail_fast ship" speed="16.67" length="8.60" shape="250.62,82.19 248.27,81.34 246.92,80.03 245.58,78.70 243.24,77.81"/>
        <lane id=":6243564036_0_3" index="3" disallow="tram rail_urban rail rail_electric rail_fast ship" speed="16.67" length="8.60" shape="250.16,85.35 247.79,84.51 246.44,83.19 245.08,81.86 242.72,80.97"/>
        <lane id=":6243564036_0_4" index="4" disallow="tram rail_urban rail rail_electric rail_fast ship" speed="16.67" length="8.60" shape="250.16,85.35 242.20,84.12"/>
    </edge>
    <edge id=":6243564036_5" function="internal">
        <lane id=":6243564036_5_0" index="0" allow="bus bicycle" speed="16.67" length="8.13" shape="241.67,87.28 249.71,88.52"/>
    </edge>
    <edge id=":cluster_175259203_175259218_0" function="internal">
        <lane id=":cluster_175259203_175259218_0_0" index="0" disallow="pedestrian bicycle tram rail_urban rail rail_electric rail_fast ship" speed="16.67" length="29.58" shape="163.44,51.32 161.76,60.03 160.73,66.02 160.02,72.05 159.30,80.89"/>