<?xml version="1.0" encoding="UTF-8"?>

<!-- generated on 2023-07-17 15:36:59 by Eclipse SUMO netconvert Version 1.17.0
<configuration xmlns:xsi="http://www.w3.org/2001/XMLSchema-instance" xsi:noNamespaceSchemaLocation="http://sumo.dlr.de/xsd/netconvertConfiguration.xsd">

    <input>
        <sumo-net-file value="osm.net.xml.gz"/>
    </input>

    <output>
        <output-file value="osm.net.xml"/>
        <output.street-names value="true"/>
    </output>

    <processing>
        <geometry.min-radius.fix.railways value="false"/>
        <geometry.max-grade.fix value="false"/>
        <offset.disable-normalization value="true"/>
        <lefthand value="1"/>
    </processing>

    <junctions>
        <no-turnarounds value="true"/>
        <junctions.corner-detail value="5"/>
        <junctions.limit-turn-speed value="5.50"/>
        <rectangular-lane-cut value="0"/>
    </junctions>

    <pedestrian>
        <walkingareas value="0"/>
    </pedestrian>

</configuration>
-->

<net version="1.16" junctionCornerDetail="5" lefthand="true" limitTurnSpeed="5.50" xmlns:xsi="http://www.w3.org/2001/XMLSchema-instance" xsi:noNamespaceSchemaLocation="http://sumo.dlr.de/xsd/net_file.xsd">

    <location netOffset="-366575.67,-144680.56" convBoundary="0.00,0.00,620.96,503.70" origBoundary="103.800725,1.308681,103.806307,1.313237" projParameter="+proj=utm +zone=48 +ellps=WGS84 +datum=WGS84 +units=m +no_defs"/>

    <type id="highway.bridleway" priority="1" numLanes="1" speed="2.78" allow="pedestrian" oneway="1" width="2.00"/>
    <type id="highway.bus_guideway" priority="1" numLanes="1" speed="27.78" allow="bus" oneway="1"/>
    <type id="highway.cycleway" priority="1" numLanes="1" speed="5.56" allow="bicycle" oneway="0" width="1.00"/>
    <type id="highway.footway" priority="1" numLanes="1" speed="2.78" allow="pedestrian" oneway="1" width="2.00"/>
    <type id="highway.ford" priority="1" numLanes="1" speed="2.78" allow="army" oneway="0"/>
    <type id="highway.living_street" priority="2" numLanes="1" speed="2.78" disallow="tram rail_urban rail rail_electric rail_fast ship" oneway="0"/>
    <type id="highway.motorway" priority="14" numLanes="2" speed="39.44" allow="private emergency authority army vip passenger hov taxi bus coach delivery truck trailer motorcycle evehicle custom1 custom2" oneway="1"/>
    <type id="highway.motorway_link" priority="9" numLanes="1" speed="22.22" allow="private emergency authority army vip passenger hov taxi bus coach delivery truck trailer motorcycle evehicle custom1 custom2" oneway="1"/>
    <type id="highway.path" priority="1" numLanes="1" speed="5.56" allow="pedestrian bicycle" oneway="0" width="2.00"/>
    <type id="highway.pedestrian" priority="1" numLanes="1" speed="2.78" allow="pedestrian" oneway="1" width="2.00"/>
    <type id="highway.primary" priority="12" numLanes="2" speed="27.78" disallow="tram rail_urban rail rail_electric rail_fast ship" oneway="0"/>
    <type id="highway.primary_link" priority="7" numLanes="1" speed="22.22" disallow="tram rail_urban rail rail_electric rail_fast ship" oneway="0"/>
    <type id="highway.raceway" priority="15" numLanes="2" speed="83.33" allow="vip" oneway="0"/>
    <type id="highway.residential" priority="3" numLanes="1" speed="13.89" disallow="tram rail_urban rail rail_electric rail_fast ship" oneway="0"/>
    <type id="highway.secondary" priority="11" numLanes="1" speed="27.78" disallow="tram rail_urban rail rail_electric rail_fast ship" oneway="0"/>
    <type id="highway.secondary_link" priority="6" numLanes="1" speed="22.22" disallow="tram rail_urban rail rail_electric rail_fast ship" oneway="0"/>
    <type id="highway.service" priority="1" numLanes="1" speed="5.56" allow="pedestrian delivery bicycle" oneway="0"/>
    <type id="highway.stairs" priority="1" numLanes="1" speed="1.39" allow="pedestrian" oneway="1" width="2.00"/>
    <type id="highway.step" priority="1" numLanes="1" speed="1.39" allow="pedestrian" oneway="1" width="2.00"/>
    <type id="highway.steps" priority="1" numLanes="1" speed="1.39" allow="pedestrian" oneway="1" width="2.00"/>
    <type id="highway.tertiary" priority="10" numLanes="1" speed="22.22" disallow="tram rail_urban rail rail_electric rail_fast ship" oneway="0"/>
    <type id="highway.tertiary_link" priority="5" numLanes="1" speed="22.22" disallow="tram rail_urban rail rail_electric rail_fast ship" oneway="0"/>
    <type id="highway.track" priority="1" numLanes="1" speed="5.56" allow="pedestrian motorcycle moped bicycle" oneway="0"/>
    <type id="highway.trunk" priority="13" numLanes="2" speed="27.78" disallow="pedestrian bicycle tram rail_urban rail rail_electric rail_fast ship" oneway="0"/>
    <type id="highway.trunk_link" priority="8" numLanes="1" speed="22.22" disallow="pedestrian bicycle tram rail_urban rail rail_electric rail_fast ship" oneway="0"/>
    <type id="highway.unclassified" priority="4" numLanes="1" speed="13.89" disallow="tram rail_urban rail rail_electric rail_fast ship" oneway="0"/>
    <type id="highway.unsurfaced" priority="1" numLanes="1" speed="8.33" disallow="tram rail_urban rail rail_electric rail_fast ship" oneway="0"/>
    <type id="railway.highspeed" priority="21" numLanes="1" speed="69.44" allow="rail_fast" oneway="1"/>
    <type id="railway.light_rail" priority="19" numLanes="1" speed="27.78" allow="rail_urban" oneway="1"/>
    <type id="railway.preserved" priority="16" numLanes="1" speed="27.78" allow="rail" oneway="1"/>
    <type id="railway.rail" priority="20" numLanes="1" speed="44.44" allow="rail" oneway="1"/>
    <type id="railway.subway" priority="18" numLanes="1" speed="27.78" allow="rail_urban" oneway="1"/>
    <type id="railway.tram" priority="17" numLanes="1" speed="13.89" allow="tram" oneway="1"/>

    <edge id=":1651250118_0" function="internal">
        <lane id=":1651250118_0_0" index="0" disallow="pedestrian bicycle tram rail_urban rail rail_electric rail_fast ship" speed="16.66" length="21.94" shape="375.81,195.54 368.67,196.86 362.84,197.04 358.05,196.67 354.02,196.38"/>
    </edge>
    <edge id=":1651250118_1" function="internal">
        <lane id=":1651250118_1_0" index="0" disallow="tram rail_urban rail rail_electric rail_fast ship" speed="19.44" length="21.97" shape="375.81,195.54 354.49,200.53"/>
        <lane id=":1651250118_1_1" index="1" disallow="tram rail_urban rail rail_electric rail_fast ship" speed="19.44" length="21.97" shape="376.64,198.63 355.24,203.64"/>
        <lane id=":1651250118_1_2" index="2" disallow="tram rail_urban rail rail_electric rail_fast ship" speed="19.44" length="21.97" shape="377.46,201.73 355.99,206.75"/>
    </edge>
    <edge id=":1651250122_0" function="internal">
        <lane id=":1651250122_0_0" index="0" disallow="pedestrian bicycle tram rail_urban rail rail_electric rail_fast ship" speed="16.66" length="20.62" shape="326.90,186.92 324.21,184.05 321.54,180.41 318.89,175.66 316.24,169.47"/>
    </edge>
    <edge id=":1651250122_1" function="internal">
        <lane id=":1651250122_1_0" index="0" disallow="pedestrian bicycle tram rail_urban rail rail_electric rail_fast ship" speed="19.44" length="20.63" shape="322.26,189.29 316.24,169.47"/>
        <lane id=":1651250122_1_1" index="1" disallow="pedestrian bicycle tram rail_urban rail rail_electric rail_fast ship" speed="19.44" length="20.63" shape="319.21,190.27 313.25,170.60"/>
    </edge>
    <edge id=":1651291551_0" function="internal">
        <lane id=":1651291551_0_0" index="0" disallow="pedestrian bicycle tram rail_urban rail rail_electric rail_fast ship" speed="8.86" length="12.11" shape="262.11,151.30 265.85,151.96 268.75,153.14 270.80,154.83 272.02,157.04"/>
    </edge>
    <edge id=":1651291551_1" function="internal">
        <lane id=":1651291551_1_0" index="0" disallow="pedestrian bicycle tram rail_urban rail rail_electric rail_fast ship" speed="5.74" length="9.21" shape="266.77,142.62 267.39,145.27 266.89,147.07 265.27,148.02 262.53,148.12"/>
    </edge>
    <edge id=":1651291551_2" function="internal">
        <lane id=":1651291551_2_0" index="0" disallow="pedestrian bicycle tram rail_urban rail rail_electric rail_fast ship" speed="19.44" length="15.52" shape="266.77,142.62 272.02,157.04"/>
        <lane id=":1651291551_2_1" index="1" disallow="pedestrian bicycle tram rail_urban rail rail_electric rail_fast ship" speed="19.44" length="15.52" shape="269.76,141.47 275.07,156.06"/>
        <lane id=":1651291551_2_2" index="2" disallow="pedestrian bicycle tram rail_urban rail rail_electric rail_fast ship" speed="19.44" length="15.52" shape="272.74,140.32 278.11,155.08"/>
    </edge>
    <edge id=":1651291556_0" function="internal">
        <lane id=":1651291556_0_0" index="0" disallow="pedestrian bicycle tram rail_urban rail rail_electric rail_fast ship" speed="16.66" length="17.52" shape="279.96,181.65 281.17,187.11 281.17,191.49 280.45,195.26 279.52,198.84"/>
    </edge>
    <edge id=":1651291556_1" function="internal">
        <lane id=":1651291556_1_0" index="0" disallow="pedestrian bicycle tram rail_urban rail rail_electric rail_fast ship" speed="19.44" length="17.45" shape="279.96,181.65 284.78,198.35"/>
        <lane id=":1651291556_1_1" index="1" disallow="pedestrian bicycle tram rail_urban rail rail_electric rail_fast ship" speed="19.44" length="17.45" shape="283.00,180.67 287.84,197.44"/>
        <lane id=":1651291556_1_2" index="2" disallow="pedestrian bicycle tram rail_urban rail rail_electric rail_fast ship" speed="19.44" length="17.45" shape="286.05,179.68 290.91,196.53"/>
    </edge>
    <edge id=":1651291560_0" function="internal">
        <lane id=":1651291560_0_0" index="0" disallow="pedestrian bicycle tram rail_urban rail rail_electric rail_fast ship" speed="15.28" length="17.61" shape="264.83,220.08 261.92,222.33 258.88,224.66 255.04,226.87 249.69,228.74"/>
    </edge>
    <edge id=":1651291560_1" function="internal">
        <lane id=":1651291560_1_0" index="0" disallow="tram rail_urban rail rail_electric rail_fast ship" speed="16.67" length="17.66" shape="266.73,224.19 249.69,228.74"/>
        <lane id=":1651291560_1_1" index="1" disallow="tram rail_urban rail rail_electric rail_fast ship" speed="16.67" length="17.66" shape="267.55,227.28 250.49,231.84"/>
        <lane id=":1651291560_1_2" index="2" disallow="tram rail_urban rail rail_electric rail_fast ship" speed="16.67" length="17.66" shape="268.37,230.38 251.29,234.94"/>
    </edge>
    <edge id=":1651298050_0" function="internal">
        <lane id=":1651298050_0_0" index="0" disallow="pedestrian bicycle tram rail_urban rail rail_electric rail_fast ship" speed="19.44" length="6.90" shape="329.18,331.80 329.78,333.62 329.78,334.98 329.67,336.38 329.98,338.31"/>
        <lane id=":1651298050_0_1" index="1" disallow="pedestrian bicycle tram rail_urban rail rail_electric rail_fast ship" speed="19.44" length="6.90" shape="332.06,330.40 332.73,332.36 332.77,333.83 332.70,335.33 333.05,337.42"/>
    </edge>
    <edge id=":1651298051_0" function="internal">
        <lane id=":1651298051_0_0" index="0" disallow="pedestrian bicycle tram rail_urban rail rail_electric rail_fast ship" speed="19.44" length="8.21" shape="367.70,351.67 367.35,349.30 367.49,347.63 367.64,345.95 367.31,343.58"/>
        <lane id=":1651298051_0_1" index="1" disallow="pedestrian bicycle tram rail_urban rail rail_electric rail_fast ship" speed="19.44" length="8.21" shape="364.60,352.47 364.24,350.09 364.38,348.41 364.53,346.72 364.21,344.34"/>
        <lane id=":1651298051_0_2" index="2" disallow="pedestrian bicycle tram rail_urban rail rail_electric rail_fast ship" speed="19.44" length="8.21" shape="361.50,353.27 361.14,350.88 361.28,349.19 361.43,347.49 361.10,345.10"/>
        <lane id=":1651298051_0_3" index="3" disallow="pedestrian bicycle tram rail_urban rail rail_electric rail_fast ship" speed="19.44" length="8.21" shape="361.50,353.27 360.66,351.00 359.73,349.57 358.80,348.14 357.99,345.86"/>
    </edge>
    <edge id=":243414257_0" function="internal">
        <lane id=":243414257_0_0" index="0" disallow="pedestrian bicycle tram rail_urban rail rail_electric rail_fast ship" speed="15.28" length="13.52" shape="254.89,272.46 258.75,271.66 261.49,271.68 264.26,272.11 268.27,272.49"/>
        <lane id=":243414257_0_1" index="1" disallow="pedestrian bicycle tram rail_urban rail rail_electric rail_fast ship" speed="15.28" length="14.53" shape="254.02,269.38 258.18,268.50 261.11,268.48 264.10,268.90 268.41,269.29"/>
    </edge>
    <edge id=":243414257_2" function="internal">
        <lane id=":243414257_2_0" index="0" disallow="tram rail_urban rail rail_electric rail_fast ship" speed="16.67" length="15.02" shape="253.15,266.30 257.48,265.62 260.57,265.97 263.66,266.32 268.01,265.69"/>
        <lane id=":243414257_2_1" index="1" disallow="tram rail_urban rail rail_electric rail_fast ship" speed="16.67" length="15.02" shape="252.28,263.22 256.62,262.54 259.72,262.88 262.82,263.23 267.18,262.60"/>
    </edge>
    <edge id=":243414268_0" function="internal">
        <lane id=":243414268_0_0" index="0" disallow="pedestrian bicycle tram rail_urban rail rail_electric rail_fast ship" speed="16.66" length="16.93" shape="371.04,242.85 373.75,240.52 376.78,238.57 380.63,236.74 385.76,234.79"/>
    </edge>
    <edge id=":243414268_1" function="internal">
        <lane id=":243414268_1_0" index="0" disallow="tram rail_urban rail rail_electric rail_fast ship" speed="19.44" length="16.91" shape="369.12,238.42 374.08,237.38 377.53,236.89 380.94,236.26 385.76,234.79"/>
        <lane id=":243414268_1_1" index="1" disallow="tram rail_urban rail rail_electric rail_fast ship" speed="19.44" length="16.91" shape="368.35,235.31 373.22,234.30 376.61,233.83 379.96,233.22 384.70,231.77"/>
    </edge>
    <edge id=":243414298_0" function="internal">
        <lane id=":243414298_0_0" index="0" disallow="pedestrian bicycle tram rail_urban rail rail_electric rail_fast ship" speed="11.07" length="6.45" shape="354.34,285.79 354.00,283.95 354.11,282.66 354.55,281.37 355.19,279.56"/>
    </edge>
    <edge id=":243414298_1" function="internal">
        <lane id=":243414298_1_0" index="0" disallow="pedestrian bicycle tram rail_urban rail rail_electric rail_fast ship" speed="19.44" length="8.05" shape="351.25,286.61 350.99,284.43 351.28,282.87 351.56,281.32 351.29,279.13"/>
        <lane id=":243414298_1_1" index="1" disallow="pedestrian bicycle tram rail_urban rail rail_electric rail_fast ship" speed="19.44" length="8.05" shape="348.16,287.44 347.87,285.16 348.14,283.54 348.41,281.91 348.11,279.64"/>
        <lane id=":243414298_1_2" index="2" disallow="pedestrian bicycle tram rail_urban rail rail_electric rail_fast ship" speed="19.44" length="8.05" shape="345.07,288.27 344.75,285.89 345.01,284.20 345.26,282.51 344.93,280.14"/>
        <lane id=":243414298_1_3" index="3" disallow="pedestrian bicycle tram rail_urban rail rail_electric rail_fast ship" speed="19.44" length="8.05" shape="341.97,289.09 341.63,286.62 341.87,284.87 342.10,283.11 341.76,280.64"/>
    </edge>
    <edge id=":243414300_0" function="internal">
        <lane id=":243414300_0_0" index="0" disallow="pedestrian bicycle tram rail_urban rail rail_electric rail_fast ship" speed="16.66" length="19.25" shape="301.16,288.88 304.78,293.18 307.32,296.10 309.53,299.23 312.16,304.15"/>
        <lane id=":243414300_0_1" index="1" disallow="pedestrian bicycle tram rail_urban rail rail_electric rail_fast ship" speed="16.66" length="19.25" shape="303.67,286.89 307.41,291.35 310.03,294.39 312.32,297.64 315.04,302.75"/>
    </edge>
    <edge id=":243414300_2" function="internal">
        <lane id=":243414300_2_0" index="0" disallow="pedestrian bicycle tram rail_urban rail rail_electric rail_fast ship" speed="19.44" length="19.29" shape="308.04,284.75 309.04,290.60 309.34,294.72 310.01,298.71 312.16,304.15"/>
        <lane id=":243414300_2_1" index="1" disallow="pedestrian bicycle tram rail_urban rail rail_electric rail_fast ship" speed="19.44" length="19.29" shape="311.15,283.99 312.10,289.64 312.35,293.63 312.98,297.49 315.04,302.75"/>
        <lane id=":243414300_2_2" index="2" disallow="pedestrian bicycle tram rail_urban rail rail_electric rail_fast ship" speed="19.44" length="19.29" shape="314.26,283.23 315.16,288.69 315.37,292.55 315.94,296.28 317.92,301.35"/>
    </edge>
    <edge id=":408185943_0" function="internal">
        <lane id=":408185943_0_0" index="0" disallow="tram rail_urban rail rail_electric rail_fast ship" speed="7.45" length="11.07" shape="452.58,176.69 450.11,176.87 447.93,175.97 446.03,173.97 444.41,170.89"/>
    </edge>
    <edge id=":408185943_1" function="internal">
        <lane id=":408185943_1_0" index="0" disallow="tram rail_urban rail rail_electric rail_fast ship" speed="19.44" length="14.80" shape="452.58,176.69 448.44,178.10 445.72,179.41 443.00,180.71 438.84,182.08"/>
        <lane id=":408185943_1_1" index="1" disallow="tram rail_urban rail rail_electric rail_fast ship" speed="19.44" length="14.80" shape="453.44,179.78 449.28,181.18 446.56,182.50 443.83,183.80 439.66,185.17"/>
    </edge>
    <edge id=":408185943_3" function="internal">
        <lane id=":408185943_3_0" index="0" disallow="tram rail_urban rail rail_electric rail_fast ship" speed="6.25" length="9.05" shape="441.45,172.10 442.05,174.55 441.68,176.51 440.34,177.99 438.02,178.98"/>
    </edge>
    <edge id=":408187532_0" function="internal">
        <lane id=":408187532_0_0" index="0" disallow="tram rail_urban rail rail_electric rail_fast ship" speed="6.17" length="9.05" shape="433.04,135.32 430.74,136.42 428.76,136.43 427.09,135.35 425.75,133.19"/>
    </edge>
    <edge id=":408187532_1" function="internal">
        <lane id=":408187532_1_0" index="0" disallow="tram rail_urban rail rail_electric rail_fast ship" speed="13.89" length="14.65" shape="433.04,135.32 429.93,137.33 426.82,139.20 423.65,140.96 420.36,142.64"/>
    </edge>
    <edge id=":408187532_2" function="internal">
        <lane id=":408187532_2_0" index="0" disallow="tram rail_urban rail rail_electric rail_fast ship" speed="8.39" length="14.68" shape="433.04,135.32 429.92,138.04 428.27,141.04 428.11,144.34 429.41,147.93"/>
    </edge>
    <edge id=":408187532_3" function="internal">
        <lane id=":408187532_3_0" index="0" disallow="tram rail_urban rail rail_electric rail_fast ship" speed="6.97" length="9.84" shape="432.22,146.39 431.38,144.03 431.53,141.84 432.67,139.83 434.81,137.99"/>
    </edge>
    <edge id=":408187532_4" function="internal">
        <lane id=":408187532_4_0" index="0" disallow="tram rail_urban rail rail_electric rail_fast ship" speed="13.89" length="14.70" shape="432.22,146.39 425.75,133.19"/>
    </edge>
    <edge id=":408187532_5" function="internal">
        <lane id=":408187532_5_0" index="0" disallow="tram rail_urban rail rail_electric rail_fast ship" speed="8.10" length="3.71" shape="432.22,146.39 430.00,143.42"/>
    </edge>
    <edge id=":408187532_12" function="internal">
        <lane id=":408187532_12_0" index="0" disallow="tram rail_urban rail rail_electric rail_fast ship" speed="8.10" length="10.33" shape="430.00,143.42 429.93,143.34 427.20,141.69 424.00,141.46 420.36,142.64"/>
    </edge>
    <edge id=":408187532_6" function="internal">
        <lane id=":408187532_6_0" index="0" disallow="tram rail_urban rail rail_electric rail_fast ship" speed="6.63" length="9.06" shape="421.76,145.52 424.11,144.75 426.17,144.90 427.94,145.96 429.41,147.93"/>
    </edge>
    <edge id=":408187532_7" function="internal">
        <lane id=":408187532_7_0" index="0" disallow="tram rail_urban rail rail_electric rail_fast ship" speed="13.89" length="15.08" shape="421.76,145.52 425.11,143.81 428.41,141.97 431.65,140.03 434.81,137.99"/>
    </edge>
    <edge id=":408187532_8" function="internal">
        <lane id=":408187532_8_0" index="0" disallow="tram rail_urban rail rail_electric rail_fast ship" speed="8.23" length="14.64" shape="421.76,145.52 424.92,143.33 426.63,140.55 426.91,137.17 425.75,133.19"/>
    </edge>
    <edge id=":408187532_9" function="internal">
        <lane id=":408187532_9_0" index="0" disallow="tram rail_urban rail rail_electric rail_fast ship" speed="6.78" length="9.62" shape="422.82,134.49 423.61,137.14 423.47,139.39 422.38,141.22 420.36,142.64"/>
    </edge>
    <edge id=":408187532_10" function="internal">
        <lane id=":408187532_10_0" index="0" disallow="tram rail_urban rail rail_electric rail_fast ship" speed="13.89" length="14.97" shape="422.82,134.49 429.41,147.93"/>
    </edge>
    <edge id=":408187532_11" function="internal">
        <lane id=":408187532_11_0" index="0" disallow="tram rail_urban rail rail_electric rail_fast ship" speed="7.73" length="4.56" shape="422.82,134.49 425.04,138.03 425.35,138.24"/>
    </edge>
    <edge id=":408187532_13" function="internal">
        <lane id=":408187532_13_0" index="0" disallow="tram rail_urban rail rail_electric rail_fast ship" speed="7.73" length="10.33" shape="425.35,138.24 427.77,139.80 431.03,139.79 434.81,137.99"/>
    </edge>
    <edge id=":5133889959_0" function="internal">
        <lane id=":5133889959_0_0" index="0" disallow="tram rail_urban rail rail_electric rail_fast ship" speed="3.65" length="4.67" shape="517.61,82.05 518.15,80.72 518.03,79.83 517.25,79.39 515.81,79.41"/>
    </edge>
    <edge id=":5228797381_0" function="internal">
        <lane id=":5228797381_0_0" index="0" disallow="tram rail_urban rail rail_electric rail_fast ship" speed="16.67" length="8.20" shape="231.72,236.70 229.33,237.06 227.64,236.93 225.95,236.81 223.57,237.20"/>
        <lane id=":5228797381_0_1" index="1" disallow="tram rail_urban rail rail_electric rail_fast ship" speed="16.67" length="8.20" shape="232.52,239.80 230.15,240.15 228.46,240.03 226.78,239.91 224.41,240.29"/>
    </edge>
    <edge id=":6136319427_0" function="internal">
        <lane id=":6136319427_0_0" index="0" disallow="tram rail_urban rail rail_electric rail_fast ship" speed="16.67" length="8.18" shape="191.57,288.58 193.98,288.22 195.69,288.35 197.39,288.45 199.79,288.04"/>
        <lane id=":6136319427_0_1" index="1" disallow="tram rail_urban rail rail_electric rail_fast ship" speed="16.67" length="8.18" shape="191.57,288.58 193.84,287.74 195.26,286.81 196.66,285.85 198.91,284.96"/>
        <lane id=":6136319427_0_2" index="2" disallow="tram rail_urban rail rail_electric rail_fast ship" speed="16.67" length="8.18" shape="190.79,285.47 193.03,284.65 194.43,283.72 195.82,282.76 198.04,281.88"/>
        <lane id=":6136319427_0_3" index="3" disallow="tram rail_urban rail rail_electric rail_fast ship" speed="16.67" length="8.18" shape="190.01,282.37 192.22,281.55 193.60,280.63 194.98,279.68 197.17,278.80"/>
    </edge>
    <edge id=":7008134696_0" function="internal">
        <lane id=":7008134696_0_0" index="0" disallow="tram rail_urban rail rail_electric rail_fast ship" speed="3.65" length="4.67" shape="366.82,-0.59 365.63,-1.41 364.74,-1.49 364.14,-0.82 363.84,0.59"/>
    </edge>
    <edge id=":7202561589_0" function="internal">
        <lane id=":7202561589_0_0" index="0" disallow="pedestrian bicycle tram rail_urban rail rail_electric rail_fast ship" speed="19.44" length="8.20" shape="359.56,311.83 359.22,309.41 359.36,307.70 359.49,305.99 359.10,303.58"/>
        <lane id=":7202561589_0_1" index="1" disallow="pedestrian bicycle tram rail_urban rail rail_electric rail_fast ship" speed="19.44" length="8.20" shape="359.56,311.83 358.74,309.54 357.82,308.11 356.88,306.68 356.01,304.41"/>
        <lane id=":7202561589_0_2" index="2" disallow="pedestrian bicycle tram rail_urban rail rail_electric rail_fast ship" speed="19.44" length="8.20" shape="356.45,312.58 355.64,310.32 354.72,308.90 353.78,307.49 352.92,305.24"/>
        <lane id=":7202561589_0_3" index="3" disallow="pedestrian bicycle tram rail_urban rail rail_electric rail_fast ship" speed="19.44" length="8.20" shape="353.34,313.34 352.54,311.10 351.62,309.70 350.68,308.30 349.83,306.06"/>
        <lane id=":7202561589_0_4" index="4" disallow="pedestrian bicycle tram rail_urban rail rail_electric rail_fast ship" speed="19.44" length="8.20" shape="350.23,314.10 349.43,311.88 348.52,310.49 347.59,309.10 346.74,306.89"/>
    </edge>
    <edge id=":cluster_1710524948_243414707_9691329968_0" function="internal">
        <lane id=":cluster_1710524948_243414707_9691329968_0_0" index="0" disallow="pedestrian bicycle tram rail_urban rail rail_electric rail_fast ship" speed="9.40" length="18.89" shape="336.23,204.95 332.32,204.99 328.91,203.09 326.00,199.25 323.60,193.47"/>
    </edge>
    <edge id=":cluster_1710524948_243414707_9691329968_1" function="internal">
        <lane id=":cluster_1710524948_243414707_9691329968_1_0" index="0" disallow="tram rail_urban rail rail_electric rail_fast ship" speed="19.44" length="20.53" shape="336.23,204.95 316.40,210.44"/>
        <lane id=":cluster_1710524948_243414707_9691329968_1_1" index="1" disallow="tram rail_urban rail rail_electric rail_fast ship" speed="19.44" length="20.53" shape="337.07,208.04 317.29,213.52"/>
        <lane id=":cluster_1710524948_243414707_9691329968_1_2" index="2" disallow="tram rail_urban rail rail_electric rail_fast ship" speed="19.44" length="20.53" shape="337.91,211.13 318.17,216.59"/>
    </edge>
    <edge id=":cluster_1710524948_243414707_9691329968_4" function="internal">
        <lane id=":cluster_1710524948_243414707_9691329968_4_0" index="0" disallow="pedestrian bicycle tram rail_urban rail rail_electric rail_fast ship" speed="19.44" length="26.46" shape="334.14,217.74 331.38,209.92 328.64,204.41 326.01,199.49 323.60,193.47"/>
        <lane id=":cluster_1710524948_243414707_9691329968_4_1" index="1" disallow="pedestrian bicycle tram rail_urban rail rail_electric rail_fast ship" speed="19.44" length="26.46" shape="331.06,218.62 328.31,210.84 325.58,205.35 322.96,200.46 320.55,194.44"/>
    </edge>
    <edge id=":cluster_1710524948_243414707_9691329968_6" function="internal">
        <lane id=":cluster_1710524948_243414707_9691329968_6_0" index="0" disallow="pedestrian bicycle tram rail_urban rail rail_electric rail_fast ship" speed="7.94" length="13.99" shape="327.99,219.50 326.42,215.99 324.11,213.82 321.07,212.99 317.29,213.52"/>
        <lane id=":cluster_1710524948_243414707_9691329968_6_1" index="1" disallow="pedestrian bicycle tram rail_urban rail rail_electric rail_fast ship" speed="6.44" length="8.82" shape="324.91,220.38 323.92,218.16 322.47,216.79 320.55,216.26 318.17,216.59"/>
    </edge>
    <edge id=":cluster_1710524948_243414707_9691329968_8" function="internal">
        <lane id=":cluster_1710524948_243414707_9691329968_8_0" index="0" disallow="pedestrian bicycle tram rail_urban rail rail_electric rail_fast ship" speed="7.30" length="8.53" shape="319.69,202.44 320.77,201.15 321.27,199.38 321.20,197.15 320.55,194.44"/>
    </edge>
    <edge id=":cluster_1710524952_243414703_9691329967_0" function="internal">
        <lane id=":cluster_1710524952_243414703_9691329967_0_0" index="0" disallow="tram rail_urban rail rail_electric rail_fast ship" speed="18.05" length="17.52" shape="301.78,214.66 284.95,219.35"/>
        <lane id=":cluster_1710524952_243414703_9691329967_0_1" index="1" disallow="tram rail_urban rail rail_electric rail_fast ship" speed="18.05" length="17.52" shape="302.66,217.74 285.79,222.44"/>
        <lane id=":cluster_1710524952_243414703_9691329967_0_2" index="2" disallow="tram rail_urban rail rail_electric rail_fast ship" speed="18.05" length="17.52" shape="303.55,220.81 286.62,225.53"/>
    </edge>
    <edge id=":cluster_1710524952_243414703_9691329967_3" function="internal">
        <lane id=":cluster_1710524952_243414703_9691329967_3_0" index="0" disallow="pedestrian bicycle tram rail_urban rail rail_electric rail_fast ship" speed="7.39" length="3.86" shape="303.55,220.81 299.95,222.21"/>
        <lane id=":cluster_1710524952_243414703_9691329967_3_1" index="1" disallow="pedestrian bicycle tram rail_urban rail rail_electric rail_fast ship" speed="6.58" length="4.12" shape="303.55,220.81 301.30,221.83 300.18,223.04"/>
    </edge>
    <edge id=":cluster_1710524952_243414703_9691329967_10" function="internal">
        <lane id=":cluster_1710524952_243414703_9691329967_10_0" index="0" disallow="pedestrian bicycle tram rail_urban rail rail_electric rail_fast ship" speed="7.39" length="7.91" shape="299.95,222.21 297.59,223.99 296.47,226.14 296.57,228.67"/>
    </edge>
    <edge id=":cluster_1710524952_243414703_9691329967_11" function="internal">
        <lane id=":cluster_1710524952_243414703_9691329967_11_0" index="0" disallow="pedestrian bicycle tram rail_urban rail rail_electric rail_fast ship" speed="6.58" length="5.00" shape="300.18,223.04 299.90,223.34 299.36,225.35 299.66,227.84"/>
    </edge>
    <edge id=":cluster_1710524952_243414703_9691329967_5" function="internal">
        <lane id=":cluster_1710524952_243414703_9691329967_5_0" index="0" disallow="pedestrian bicycle tram rail_urban rail rail_electric rail_fast ship" speed="8.11" length="14.93" shape="287.05,206.02 288.24,211.29 288.29,215.27 287.19,217.96 284.95,219.35"/>
    </edge>
    <edge id=":cluster_1710524952_243414703_9691329967_6" function="internal">
        <lane id=":cluster_1710524952_243414703_9691329967_6_0" index="0" disallow="pedestrian bicycle tram rail_urban rail rail_electric rail_fast ship" speed="19.44" length="24.43" shape="287.05,206.02 293.48,229.49"/>
        <lane id=":cluster_1710524952_243414703_9691329967_6_1" index="1" disallow="pedestrian bicycle tram rail_urban rail rail_electric rail_fast ship" speed="19.44" length="24.43" shape="290.12,205.10 296.57,228.67"/>