<?xml version="1.0" encoding="UTF-8"?>

<!-- generated on 2023-07-17 14:23:05 by Eclipse SUMO netconvert Version 1.17.0
<configuration xmlns:xsi="http://www.w3.org/2001/XMLSchema-instance" xsi:noNamespaceSchemaLocation="http://sumo.dlr.de/xsd/netconvertConfiguration.xsd">

    <input>
        <sumo-net-file value="osm.net.xml.gz"/>
    </input>

    <output>
        <output-file value="osm.net.xml"/>
        <output.street-names value="true"/>
    </output>

    <processing>
        <geometry.min-radius.fix.railways value="false"/>
        <geometry.max-grade.fix value="false"/>
        <offset.disable-normalization value="true"/>
        <lefthand value="0"/>
    </processing>

    <junctions>
        <no-turnarounds value="true"/>
        <junctions.corner-detail value="5"/>
        <junctions.limit-turn-speed value="5.50"/>
        <rectangular-lane-cut value="0"/>
    </junctions>

    <pedestrian>
        <walkingareas value="0"/>
    </pedestrian>

</configuration>
-->

<net version="1.16" junctionCornerDetail="5" limitTurnSpeed="5.50" xmlns:xsi="http://www.w3.org/2001/XMLSchema-instance" xsi:noNamespaceSchemaLocation="http://sumo.dlr.de/xsd/net_file.xsd">

    <location netOffset="-371190.25,-145648.84" convBoundary="0.00,0.00,389.43,290.30" origBoundary="103.842194,1.317459,103.845694,1.320084" projParameter="+proj=utm +zone=48 +ellps=WGS84 +datum=WGS84 +units=m +no_defs"/>

    <type id="highway.bridleway" priority="1" numLanes="1" speed="2.78" allow="pedestrian" oneway="1" width="2.00"/>
    <type id="highway.bus_guideway" priority="1" numLanes="1" speed="27.78" allow="bus" oneway="1"/>
    <type id="highway.cycleway" priority="1" numLanes="1" speed="5.56" allow="bicycle" oneway="0" width="1.00"/>
    <type id="highway.footway" priority="1" numLanes="1" speed="2.78" allow="pedestrian" oneway="1" width="2.00"/>
    <type id="highway.ford" priority="1" numLanes="1" speed="2.78" allow="army" oneway="0"/>
    <type id="highway.living_street" priority="2" numLanes="1" speed="2.78" disallow="tram rail_urban rail rail_electric rail_fast ship" oneway="0"/>
    <type id="highway.motorway" priority="14" numLanes="2" speed="39.44" allow="private emergency authority army vip passenger hov taxi bus coach delivery truck trailer motorcycle evehicle custom1 custom2" oneway="1"/>
    <type id="highway.motorway_link" priority="9" numLanes="1" speed="22.22" allow="private emergency authority army vip passenger hov taxi bus coach delivery truck trailer motorcycle evehicle custom1 custom2" oneway="1"/>
    <type id="highway.path" priority="1" numLanes="1" speed="5.56" allow="pedestrian bicycle" oneway="0" width="2.00"/>
    <type id="highway.pedestrian" priority="1" numLanes="1" speed="2.78" allow="pedestrian" oneway="1" width="2.00"/>
    <type id="highway.primary" priority="12" numLanes="2" speed="27.78" disallow="tram rail_urban rail rail_electric rail_fast ship" oneway="0"/>
    <type id="highway.primary_link" priority="7" numLanes="1" speed="22.22" disallow="tram rail_urban rail rail_electric rail_fast ship" oneway="0"/>
    <type id="highway.raceway" priority="15" numLanes="2" speed="83.33" allow="vip" oneway="0"/>
    <type id="highway.residential" priority="3" numLanes="1" speed="13.89" disallow="tram rail_urban rail rail_electric rail_fast ship" oneway="0"/>
    <type id="highway.secondary" priority="11" numLanes="1" speed="27.78" disallow="tram rail_urban rail rail_electric rail_fast ship" oneway="0"/>
    <type id="highway.secondary_link" priority="6" numLanes="1" speed="22.22" disallow="tram rail_urban rail rail_electric rail_fast ship" oneway="0"/>
    <type id="highway.service" priority="1" numLanes="1" speed="5.56" allow="pedestrian delivery bicycle" oneway="0"/>
    <type id="highway.stairs" priority="1" numLanes="1" speed="1.39" allow="pedestrian" oneway="1" width="2.00"/>
    <type id="highway.step" priority="1" numLanes="1" speed="1.39" allow="pedestrian" oneway="1" width="2.00"/>
    <type id="highway.steps" priority="1" numLanes="1" speed="1.39" allow="pedestrian" oneway="1" width="2.00"/>
    <type id="highway.tertiary" priority="10" numLanes="1" speed="22.22" disallow="tram rail_urban rail rail_electric rail_fast ship" oneway="0"/>
    <type id="highway.tertiary_link" priority="5" numLanes="1" speed="22.22" disallow="tram rail_urban rail rail_electric rail_fast ship" oneway="0"/>
    <type id="highway.track" priority="1" numLanes="1" speed="5.56" allow="pedestrian motorcycle moped bicycle" oneway="0"/>
    <type id="highway.trunk" priority="13" numLanes="2" speed="27.78" disallow="pedestrian bicycle tram rail_urban rail rail_electric rail_fast ship" oneway="0"/>
    <type id="highway.trunk_link" priority="8" numLanes="1" speed="22.22" disallow="pedestrian bicycle tram rail_urban rail rail_electric rail_fast ship" oneway="0"/>
    <type id="highway.unclassified" priority="4" numLanes="1" speed="13.89" disallow="tram rail_urban rail rail_electric rail_fast ship" oneway="0"/>
    <type id="highway.unsurfaced" priority="1" numLanes="1" speed="8.33" disallow="tram rail_urban rail rail_electric rail_fast ship" oneway="0"/>
    <type id="railway.highspeed" priority="21" numLanes="1" speed="69.44" allow="rail_fast" oneway="1"/>
    <type id="railway.light_rail" priority="19" numLanes="1" speed="27.78" allow="rail_urban" oneway="1"/>
    <type id="railway.preserved" priority="16" numLanes="1" speed="27.78" allow="rail" oneway="1"/>
    <type id="railway.rail" priority="20" numLanes="1" speed="44.44" allow="rail" oneway="1"/>
    <type id="railway.subway" priority="18" numLanes="1" speed="27.78" allow="rail_urban" oneway="1"/>
    <type id="railway.tram" priority="17" numLanes="1" speed="13.89" allow="tram" oneway="1"/>

    <edge id=":1791653964_0" function="internal">
        <lane id=":1791653964_0_0" index="0" disallow="tram rail_urban rail rail_electric rail_fast ship" speed="16.67" length="13.42" shape="227.78,107.43 231.52,108.60 234.19,109.00 236.92,109.12 240.86,109.48"/>
        <lane id=":1791653964_0_1" index="1" disallow="tram rail_urban rail rail_electric rail_fast ship" speed="16.67" length="13.42" shape="227.15,110.61 230.94,111.79 233.66,112.18 236.44,112.29 240.44,112.66"/>
    </edge>
    <edge id=":1791653964_2" function="internal">
        <lane id=":1791653964_2_0" index="0" disallow="tram rail_urban rail rail_electric rail_fast ship" speed="15.28" length="7.41" shape="232.51,116.85 234.70,116.21 236.23,115.79 237.78,115.64 240.02,115.83"/>
        <lane id=":1791653964_2_1" index="1" disallow="tram rail_urban rail rail_electric rail_fast ship" speed="15.28" length="7.41" shape="232.64,120.13 234.67,119.51 236.09,119.05 237.52,118.85 239.60,119.00"/>
    </edge>
    <edge id=":1791653977_0" function="internal">
        <lane id=":1791653977_0_0" index="0" disallow="tram rail_urban rail rail_electric rail_fast ship" speed="16.67" length="22.61" shape="98.76,189.30 80.50,175.97"/>
    </edge>
    <edge id=":1791653977_1" function="internal">
        <lane id=":1791653977_1_0" index="0" disallow="tram rail_urban rail rail_electric rail_fast ship" speed="15.28" length="22.26" shape="100.64,184.91 93.89,183.27 88.37,180.97 83.95,178.41 80.50,175.97"/>
    </edge>
    <edge id=":1791653997_0" function="internal">
        <lane id=":1791653997_0_0" index="0" disallow="pedestrian tram rail_urban rail rail_electric rail_fast ship" speed="16.67" length="0.30" shape="106.64,200.65 106.86,200.84"/>
        <lane id=":1791653997_0_1" index="1" disallow="pedestrian tram rail_urban rail rail_electric rail_fast ship" speed="16.67" length="0.30" shape="104.60,203.12 104.84,203.32"/>
        <lane id=":1791653997_0_2" index="2" disallow="pedestrian tram rail_urban rail rail_electric rail_fast ship" speed="16.67" length="0.30" shape="102.57,205.60 102.81,205.79"/>
    </edge>
    <edge id=":245159502_0" function="internal">
        <lane id=":245159502_0_0" index="0" disallow="tram rail_urban rail rail_electric rail_fast ship" speed="16.67" length="8.20" shape="60.04,160.53 57.81,159.47 55.94,159.40 54.11,159.28 52.01,158.06"/>
        <lane id=":245159502_0_1" index="1" disallow="tram rail_urban rail rail_electric rail_fast ship" speed="16.67" length="8.20" shape="60.04,160.53 54.14,155.68"/>
        <lane id=":245159502_0_2" index="2" disallow="tram rail_urban rail rail_electric rail_fast ship" speed="16.67" length="8.20" shape="60.04,160.53 58.51,158.75 58.08,157.01 57.69,155.23 56.28,153.30"/>
    </edge>
    <edge id=":250073103_0" function="internal">
        <lane id=":250073103_0_0" index="0" disallow="tram rail_urban rail rail_electric rail_fast ship" speed="16.67" length="21.67" shape="251.48,114.61 245.53,113.98 241.93,111.53 238.54,108.07 233.22,104.37"/>
        <lane id=":250073103_0_1" index="1" disallow="tram rail_urban rail rail_electric rail_fast ship" speed="16.67" length="21.67" shape="251.26,111.42 245.36,110.72 241.85,108.15 238.54,104.56 233.27,100.80"/>
        <lane id=":250073103_0_2" index="2" disallow="tram rail_urban rail rail_electric rail_fast ship" speed="16.67" length="21.67" shape="251.05,108.23 245.19,107.47 241.76,104.77 238.54,101.04 233.31,97.23"/>
        <lane id=":250073103_0_3" index="3" disallow="tram rail_urban rail rail_electric rail_fast ship" speed="16.67" length="21.67" shape="250.83,105.03 245.02,104.22 241.68,101.38 238.54,97.53 233.35,93.66"/>
    </edge>
    <edge id=":250073103_4" function="internal">
        <lane id=":250073103_4_0" index="0" disallow="tram rail_urban rail rail_electric rail_fast ship" speed="11.99" length="21.03" shape="250.62,101.84 246.52,101.29 242.48,99.09 238.52,95.22 234.63,89.70"/>
    </edge>
    <edge id=":250073106_0" function="internal">
        <lane id=":250073106_0_0" index="0" disallow="pedestrian tram rail_urban rail rail_electric rail_fast ship" speed="10.32" length="11.11" shape="228.65,79.86 226.46,76.11 224.98,73.19 224.20,71.10 224.13,69.84"/>
        <lane id=":250073106_0_1" index="1" disallow="pedestrian tram rail_urban rail rail_electric rail_fast ship" speed="9.55" length="9.44" shape="228.65,79.86 227.48,77.53 226.84,75.24 226.74,73.01 227.17,70.83"/>
    </edge>
    <edge id=":250073106_2" function="internal">
        <lane id=":250073106_2_0" index="0" disallow="pedestrian tram rail_urban rail rail_electric rail_fast ship" speed="16.67" length="1.75" shape="220.53,70.62 221.08,68.85"/>
        <lane id=":250073106_2_1" index="1" disallow="pedestrian tram rail_urban rail rail_electric rail_fast ship" speed="16.67" length="1.75" shape="223.61,71.52 224.13,69.84"/>
        <lane id=":250073106_2_2" index="2" disallow="pedestrian tram rail_urban rail rail_electric rail_fast ship" speed="16.67" length="1.75" shape="226.68,72.41 227.17,70.83"/>
    </edge>
    <edge id=":250073107_0" function="internal">
        <lane id=":250073107_0_0" index="0" disallow="tram rail_urban rail rail_electric rail_fast ship" speed="16.67" length="24.06" shape="85.57,181.75 91.02,186.24 94.47,189.64 97.86,193.11 103.16,197.79"/>
        <lane id=":250073107_0_1" index="1" disallow="tram rail_urban rail rail_electric rail_fast ship" speed="16.67" length="24.06" shape="83.63,184.30 89.13,188.83 92.62,192.26 96.05,195.76 101.40,200.49"/>
        <lane id=":250073107_0_2" index="2" disallow="tram rail_urban rail rail_electric rail_fast ship" speed="16.67" length="24.06" shape="81.69,186.84 87.25,191.42 90.78,194.88 94.25,198.42 99.65,203.19"/>
    </edge>
    <edge id=":250073107_3" function="internal">
        <lane id=":250073107_3_0" index="0" disallow="tram rail_urban rail rail_electric rail_fast ship" speed="15.28" length="24.97" shape="81.69,186.84 87.50,191.78 91.06,196.11 93.47,200.80 95.81,206.83"/>
        <lane id=":250073107_3_1" index="1" disallow="tram rail_urban rail rail_electric rail_fast ship" speed="15.28" length="24.29" shape="79.75,189.39 85.34,194.18 88.69,198.39 90.94,203.01 93.22,209.00"/>
    </edge>
    <edge id=":250073111_0" function="internal">
        <lane id=":250073111_0_0" index="0" disallow="pedestrian tram rail_urban rail rail_electric rail_fast ship" speed="16.67" length="21.05" shape="110.85,233.61 97.40,249.73"/>
        <lane id=":250073111_0_1" index="1" disallow="pedestrian tram rail_urban rail rail_electric rail_fast ship" speed="16.67" length="21.05" shape="108.39,231.56 94.90,247.72"/>
        <lane id=":250073111_0_2" index="2" disallow="pedestrian tram rail_urban rail rail_electric rail_fast ship" speed="16.67" length="21.05" shape="105.94,229.51 92.41,245.72"/>
    </edge>
    <edge id=":250073111_3" function="internal">
        <lane id=":250073111_3_0" index="0" disallow="tram rail_urban rail rail_electric rail_fast ship" speed="15.28" length="21.70" shape="100.08,227.03 100.63,233.29 100.37,237.99 98.67,242.38 94.90,247.72"/>
        <lane id=":250073111_3_1" index="1" disallow="tram rail_urban rail rail_electric rail_fast ship" speed="15.18" length="21.70" shape="96.75,225.93 97.39,232.11 97.33,236.59 95.90,240.69 92.41,245.72"/>
    </edge>
    <edge id=":4722648365_0" function="internal">
        <lane id=":4722648365_0_0" index="0" disallow="tram rail_urban rail rail_electric rail_fast ship" speed="16.67" length="7.94" shape="39.35,148.19 41.17,149.47 42.64,150.01 44.14,150.50 46.06,151.65"/>
        <lane id=":4722648365_0_1" index="1" disallow="tram rail_urban rail rail_electric rail_fast ship" speed="16.67" length="7.94" shape="37.22,150.58 39.09,151.91 40.60,152.48 42.14,153.00 44.12,154.20"/>
        <lane id=":4722648365_0_2" index="2" disallow="tram rail_urban rail rail_electric rail_fast ship" speed="16.67" length="7.94" shape="35.09,152.96 37.01,154.34 38.56,154.94 40.15,155.50 42.18,156.74"/>
        <lane id=":4722648365_0_3" index="3" disallow="tram rail_urban rail rail_electric rail_fast ship" speed="16.67" length="7.94" shape="35.09,152.96 36.72,154.75 37.59,156.22 38.49,157.64 40.24,159.29"/>
    </edge>
    <edge id=":4738289810_0" function="internal">
        <lane id=":4738289810_0_0" index="0" disallow="tram rail_urban rail rail_electric rail_fast ship" speed="16.67" length="8.21" shape="272.23,115.43 274.60,115.05 276.17,114.41 277.73,113.77 280.11,113.37"/>
        <lane id=":4738289810_0_1" index="1" disallow="tram rail_urban rail rail_electric rail_fast ship" speed="16.67" length="8.21" shape="272.41,118.63 274.79,118.25 276.35,117.61 277.92,116.96 280.30,116.57"/>
        <lane id=":4738289810_0_2" index="2" disallow="tram rail_urban rail rail_electric rail_fast ship" speed="16.67" length="8.21" shape="272.58,121.82 274.97,121.44 276.54,120.80 278.11,120.16 280.50,119.76"/>
    </edge>
    <edge id=":6105431625_0" function="internal">
        <lane id=":6105431625_0_0" index="0" disallow="tram rail_urban rail rail_electric rail_fast ship" speed="3.65" length="4.67" shape="30.91,72.07 29.52,72.46 28.65,72.25 28.30,71.42 28.47,69.99"/>
    </edge>
    <edge id=":7014867141_0" function="internal">
        <lane id=":7014867141_0_0" index="0" disallow="tram rail_urban rail rail_electric rail_fast ship" speed="16.67" length="8.18" shape="107.95,242.05 109.18,240.06 109.69,238.50 110.18,236.92 111.36,234.90"/>
        <lane id=":7014867141_0_1" index="1" disallow="tram rail_urban rail rail_electric rail_fast ship" speed="16.67" length="8.18" shape="110.47,244.02 111.72,242.01 112.24,240.43 112.74,238.84 113.93,236.80"/>
        <lane id=":7014867141_0_2" index="2" disallow="tram rail_urban rail rail_electric rail_fast ship" speed="16.67" length="8.18" shape="112.99,245.99 114.25,243.96 114.78,242.37 115.30,240.76 116.51,238.70"/>
        <lane id=":7014867141_0_3" index="3" disallow="tram rail_urban rail rail_electric rail_fast ship" speed="16.67" length="8.18" shape="115.51,247.96 116.79,245.91 117.33,244.30 117.86,242.68 119.09,240.59"/>
        <lane id=":7014867141_0_4" index="4" disallow="tram rail_urban rail rail_electric rail_fast ship" speed="16.67" length="8.18" shape="118.03,249.93 119.33,247.86 119.88,246.24 120.42,244.60 121.66,242.49"/>
        <lane id=":7014867141_0_5" index="5" disallow="tram rail_urban rail rail_electric rail_fast ship" speed="16.67" length="8.18" shape="118.03,249.93 119.74,248.15 121.17,247.18 122.59,246.21 124.24,244.39"/>
    </edge>
    <edge id=":8013991955_0" function="internal">
        <lane id=":8013991955_0_0" index="0" disallow="tram rail_urban rail rail_electric rail_fast ship" speed="16.67" length="8.10" shape="174.08,158.74 175.24,156.78 175.69,155.24 176.11,153.68 177.17,151.65"/>
        <lane id=":8013991955_0_1" index="1" disallow="tram rail_urban rail rail_electric rail_fast ship" speed="16.67" length="8.10" shape="176.64,160.67 177.83,158.67 178.29,157.10 178.73,155.51 179.83,153.44"/>
        <lane id=":8013991955_0_2" index="2" disallow="tram rail_urban rail rail_electric rail_fast ship" speed="16.67" length="8.10" shape="179.19,162.59 180.41,160.55 180.90,158.96 181.36,157.34 182.48,155.23"/>
        <lane id=":8013991955_0_3" index="3" disallow="tram rail_urban rail rail_electric rail_fast ship" speed="16.67" length="8.10" shape="181.75,164.52 183.00,162.44 183.51,160.82 183.98,159.17 185.13,157.02"/>
        <lane id=":8013991955_0_4" index="4" disallow="tram rail_urban rail rail_electric rail_fast ship" speed="16.67" length="8.10" shape="181.75,164.52 183.42,162.71 184.83,161.71 186.21,160.69 187.78,158.81"/>
    </edge>
    <edge id=":8013991971_0" function="internal">
        <lane id=":8013991971_0_0" index="0" disallow="pedestrian tram rail_urban rail rail_electric rail_fast ship" speed="16.67" length="12.08" shape="144.59,182.47 137.58,192.30"/>
    </edge>
    <edge id=":8013991971_1" function="internal">
        <lane id=":8013991971_1_0" index="0" disallow="pedestrian tram rail_urban rail rail_electric rail_fast ship" speed="9.55" length="11.40" shape="144.59,182.47 142.36,185.11 140.08,186.96 137.73,188.04 135.32,188.33"/>
        <lane id=":8013991971_1_1" index="1" disallow="pedestrian tram rail_urban rail rail_electric rail_fast ship" speed="9.15" length="10.43" shape="144.59,182.47 143.18,183.74 141.09,184.60 138.31,185.06 134.85,185.11"/>
    </edge>
    <edge id=":8013991976_0" function="internal">
        <lane id=":8013991976_0_0" index="0" disallow="tram rail_urban rail rail_electric rail_fast ship" speed="16.67" length="8.27" shape="195.30,124.79 196.89,123.08 198.38,122.25 199.83,121.39 201.27,119.59"/>
        <lane id=":8013991976_0_1" index="1" disallow="tram rail_urban rail rail_electric rail_fast ship" speed="16.67" length="8.27" shape="197.95,126.58 199.59,124.81 201.11,123.94 202.57,123.03 204.06,121.17"/>
        <lane id=":8013991976_0_2" index="2" disallow="tram rail_urban rail rail_electric rail_fast ship" speed="16.67" length="8.27" shape="200.61,128.37 202.28,126.53 203.83,125.62 205.32,124.68 206.84,122.75"/>
    </edge>
    <edge id=":8013991976_3" function="internal">
        <lane id=":8013991976_3_0" index="0" disallow="tram rail_urban rail rail_electric rail_fast ship" speed="12.48" length="8.01" shape="203.26,130.16 204.68,128.31 205.93,127.28 207.44,126.56 209.64,125.63"/>
        <lane id=":8013991976_3_1" index="1" disallow="tram rail_urban rail rail_electric rail_fast ship" speed="11.28" length="6.50" shape="205.91,131.95 207.08,130.47 208.13,129.69 209.40,129.16 211.20,128.43"/>
    </edge>
    <edge id=":8154673575_0" function="internal">
        <lane id=":8154673575_0_0" index="0" disallow="tram rail_urban rail rail_electric rail_fast ship" speed="16.67" length="8.21" shape="297.86,109.87 295.47,110.29 293.91,110.95 292.34,111.61 289.96,112.02"/>
        <lane id=":8154673575_0_1" index="1" disallow="tram rail_urban rail rail_electric rail_fast ship" speed="16.67" length="8.21" shape="297.62,106.68 295.25,107.10 293.68,107.76 292.12,108.42 289.74,108.83"/>
        <lane id=":8154673575_0_2" index="2" disallow="tram rail_urban rail rail_electric rail_fast ship" speed="16.67" length="8.21" shape="297.39,103.49 295.02,103.91 293.46,104.57 291.90,105.23 289.53,105.64"/>
        <lane id=":8154673575_0_3" index="3" disallow="tram rail_urban rail rail_electric rail_fast ship" speed="16.67" length="8.21" shape="297.16,100.29 294.80,100.72 293.24,101.38 291.68,102.04 289.31,102.45"/>
        <lane id=":8154673575_0_4" index="4" disallow="tram rail_urban rail rail_electric rail_fast ship" speed="16.67" length="8.21" shape="297.16,100.29 294.76,100.22 293.13,99.78 291.50,99.34 289.10,99.25"/>
    </edge>
    <edge id=":cluster_1791653984_2125048974_245159401_247043825_#2more_0" function="internal">
        <lane id=":cluster_1791653984_2125048974_245159401_247043825_#2more_0_0" index="0" disallow="pedestrian tram rail_urban rail rail_electric rail_fast ship" speed="9.20" length="22.69" shape="216.45,94.48 209.22,90.75 203.59,89.54 199.56,90.86 197.13,94.71"/>
    </edge>
    <edge id=":cluster_1791653984_2125048974_245159401_247043825_#2more_1" function="internal">
        <lane id=":cluster_1791653984_2125048974_245159401_247043825_#2more_1_0" index="0" disallow="tram rail_urban rail rail_electric rail_fast ship" speed="6.63" length="21.35" shape="219.25,88.68 222.37,93.97 222.43,97.78 219.41,100.11 216.53,100.51"/>
        <lane id=":cluster_1791653984_2125048974_245159401_247043825_#2more_1_1" index="1" disallow="tram rail_urban rail rail_electric rail_fast ship" speed="7.91" length="21.35" shape="220.65,85.78 225.24,93.56 225.32,99.17 220.88,102.59 215.16,103.39"/>
    </edge>
    <edge id=":cluster_1791653984_2125048974_245159401_247043825_#2more_15" function="internal">
        <lane id=":cluster_1791653984_2125048974_245159401_247043825_#2more_15_0" index="0" disallow="tram rail_urban rail rail_electric rail_fast ship" speed="6.63" length="3.24" shape="216.53,100.51 213.33,100.96"/>
    </edge>
    <edge id=":cluster_1791653984_2125048974_245159401_247043825_#2more_16" function="internal">
        <lane id=":cluster_1791653984_2125048974_245159401_247043825_#2more_16_0" index="0" disallow="tram rail_urban rail rail_electric rail_fast ship" speed="7.91" length="3.26" shape="215.16,103.39 211.93,103.84"/>
    </edge>
    <edge id=":cluster_1791653984_2125048974_245159401_247043825_#2more_3" function="internal">
        <lane id=":cluster_1791653984_2125048974_245159401_247043825_#2more_3_0" index="0" disallow="pedestrian tram rail_urban rail rail_electric rail_fast ship" speed="7.88" length="14.81" shape="211.12,59.52 219.90,56.97 225.41,58.31"/>
    </edge>
    <edge id=":cluster_1791653984_2125048974_245159401_247043825_#2more_4" function="internal">
        <lane id=":cluster_1791653984_2125048974_245159401_247043825_#2more_4_0" index="0" disallow="pedestrian tram rail_urban rail rail_electric rail_fast ship" speed="14.47" length="44.82" shape="211.12,59.52 206.65,75.03 205.53,87.11 207.75,95.75 213.33,100.96"/>
    </edge>
    <edge id=":cluster_1791653984_2125048974_245159401_247043825_#2more_5" function="internal">
        <lane id=":cluster_1791653984_2125048974_245159401_247043825_#2more_5_0" index="0" disallow="pedestrian tram rail_urban rail rail_electric rail_fast ship" speed="16.67" length="37.87" shape="211.12,59.52 197.13,94.71"/>
    </edge>
    <edge id=":cluster_1791653984_2125048974_245159401_247043825_#2more_6" function="internal">
        <lane id=":cluster_1791653984_2125048974_245159401_247043825_#2more_6_0" index="0" disallow="pedestrian tram rail_urban rail rail_electric rail_fast ship" speed="3.92" length="2.60" shape="211.12,59.52 211.22,59.64 211.71,58.98 212.08,58.08 211.84,57.49"/>
    </edge>
    <edge id=":cluster_1791653984_2125048974_245159401_247043825_#2more_17" function="internal">
        <lane id=":cluster_1791653984_2125048974_245159401_247043825_#2more_17_0" index="0" disallow="pedestrian tram rail_urban rail rail_electric rail_fast ship" speed="7.88" length="14.81" shape="225.41,58.31 227.65,63.51 226.62,72.60"/>
    </edge>
    <edge id=":cluster_1791653984_2125048974_245159401_247043825_#2more_7" function="internal">
        <lane id=":cluster_1791653984_2125048974_245159401_247043825_#2more_7_0" index="0" disallow="tram rail_urban rail rail_electric rail_fast ship" speed="7.50" length="12.79" shape="209.52,64.22 220.48,70.82"/>
    </edge>
    <edge id=":cluster_1791653984_2125048974_245159401_247043825_#2more_8" function="internal">
        <lane id=":cluster_1791653984_2125048974_245159401_247043825_#2more_8_0" index="0" disallow="tram rail_urban rail rail_electric rail_fast ship" speed="15.28" length="39.20" shape="209.52,64.22 210.84,70.04 209.82,81.58 209.59,93.62 213.33,100.96"/>
        <lane id=":cluster_1791653984_2125048974_245159401_247043825_#2more_8_1" index="1" disallow="tram rail_urban rail rail_electric rail_fast ship" speed="15.28" length="39.20" shape="209.52,64.22 210.62,70.49 209.12,83.02 208.42,96.05 211.93,103.84"/>
    </edge>
    <edge id=":cluster_1791653984_2125048974_245159401_247043825_#2more_10" function="internal">
        <lane id=":cluster_1791653984_2125048974_245159401_247043825_#2more_10_0" index="0" disallow="pedestrian tram rail_urban rail rail_electric rail_fast ship" speed="12.10" length="26.45" shape="209.52,64.22 207.85,65.82 205.23,71.43 201.66,81.06 199.24,88.34"/>
    </edge>
    <edge id=":cluster_1791653984_2125048974_245159401_247043825_#2more_18" function="internal">
        <lane id=":cluster_1791653984_2125048974_245159401_247043825_#2more_18_0" index="0" disallow="pedestrian tram rail_urban rail rail_electric rail_fast ship" speed="12.10" length="6.71" shape="199.24,88.34 197.13,94.71"/>
    </edge>
    <edge id=":cluster_1791653984_2125048974_245159401_247043825_#2more_11" function="internal">
        <lane id=":cluster_1791653984_2125048974_245159401_247043825_#2more_11_0" index="0" disallow="tram rail_urban rail rail_electric rail_fast ship" speed="16.67" length="29.94" shape="210.56,99.00 213.88,90.77 216.04,85.09 217.93,79.32 220.48,70.82"/>
        <lane id=":cluster_1791653984_2125048974_245159401_247043825_#2more_11_1" index="1" disallow="tram rail_urban rail rail_electric rail_fast ship" speed="16.67" length="29.94" shape="213.61,99.98 216.95,91.72 219.10,86.02 221.00,80.23 223.55,71.71"/>
    </edge>
    <edge id=":cluster_1791653984_2125048974_245159401_247043825_#2more_13" function="internal">
        <lane id=":cluster_1791653984_2125048974_245159401_247043825_#2more_13_0" index="0" disallow="pedestrian tram rail_urban rail rail_electric rail_fast ship" speed="7.95" length="14.98" shape="216.67,100.95 209.44,106.72 203.78,107.60"/>
    </edge>
    <edge id=":cluster_1791653984_2125048974_245159401_247043825_#2more_14" function="internal">
        <lane id=":cluster_1791653984_2125048974_245159401_247043825_#2more_14_0" index="0" disallow="tram rail_urban rail rail_electric rail_fast ship" speed="16.67" length="30.07" shape="216.67,100.95 220.01,92.68 222.17,86.96 224.07,81.14 226.62,72.60"/>
    </edge>
    <edge id=":cluster_1791653984_2125048974_245159401_247043825_#2more_19" function="internal">
        <lane id=":cluster_1791653984_2125048974_245159401_247043825_#2more_19_0" index="0" disallow="pedestrian tram rail_urban rail rail_electric rail_fast ship" speed="7.95" length="14.98" shape="203.78,107.60 199.67,103.60 197.13,94.71"/>
    </edge>
    <edge id=":cluster_7014867142_8013991982_8013991983_8014030786_0" function="internal">
        <lane id=":cluster_7014867142_8013991982_8013991983_8014030786_0_0" index="0" disallow="pedestrian tram rail_urban rail rail_electric rail_fast ship" speed="7.34" length="12.83" shape="126.65,206.66 134.14,204.08 138.96,205.00"/>
    </edge>
    <edge id=":cluster_7014867142_8013991982_8013991983_8014030786_1" function="internal">
        <lane id=":cluster_7014867142_8013991982_8013991983_8014030786_1_0" index="0" disallow="pedestrian tram rail_urban rail rail_electric rail_fast ship" speed="16.67" length="11.51" shape="126.65,206.66 125.22,209.34 124.71,211.66 124.19,214.13 122.75,217.25"/>
        <lane id=":cluster_7014867142_8013991982_8013991983_8014030786_1_1" index="1" disallow="pedestrian tram rail_urban rail rail_electric rail_fast ship" speed="16.67" length="11.51" shape="126.65,206.66 120.02,215.58"/>
        <lane id=":cluster_7014867142_8013991982_8013991983_8014030786_1_2" index="2" disallow="pedestrian tram rail_urban rail rail_electric rail_fast ship" speed="16.67" length="11.51" shape="126.65,206.66 124.39,208.79 122.03,209.91 119.64,211.22 117.29,213.91"/>
    </edge>
    <edge id=":cluster_7014867142_8013991982_8013991983_8014030786_14" function="internal">
        <lane id=":cluster_7014867142_8013991982_8013991983_8014030786_14_0" index="0" disallow="pedestrian tram rail_urban rail rail_electric rail_fast ship" speed="7.34" length="12.83" shape="138.96,205.00 141.12,209.41 140.62,217.31"/>
    </edge>
    <edge id=":cluster_7014867142_8013991982_8013991983_8014030786_4" function="internal">
        <lane id=":cluster_7014867142_8013991982_8013991983_8014030786_4_0" index="0" disallow="pedestrian tram rail_urban rail rail_electric rail_fast ship" speed="8.86" length="17.90" shape="117.18,209.24 122.26,212.63 126.59,214.13 130.16,213.75 132.98,211.49"/>
        <lane id=":cluster_7014867142_8013991982_8013991983_8014030786_4_1" index="1" disallow="pedestrian tram rail_urban rail rail_electric rail_fast ship" speed="9.96" length="22.87" shape="115.38,211.90 121.62,215.94 127.06,217.55 131.69,216.71 135.53,213.43"/>
    </edge>
    <edge id=":cluster_7014867142_8013991982_8013991983_8014030786_6" function="internal">