<?xml version="1.0" encoding="UTF-8"?>

<!-- generated on 2023-07-14 11:17:00 by Eclipse SUMO netconvert Version 1.17.0
<configuration xmlns:xsi="http://www.w3.org/2001/XMLSchema-instance" xsi:noNamespaceSchemaLocation="http://sumo.dlr.de/xsd/netconvertConfiguration.xsd">

    <input>
        <sumo-net-file value="osm.net.xml.gz"/>
    </input>

    <output>
        <output-file value="osm.net.xml"/>
        <output.street-names value="true"/>
    </output>

    <processing>
        <geometry.min-radius.fix.railways value="false"/>
        <geometry.max-grade.fix value="false"/>
        <offset.disable-normalization value="true"/>
        <lefthand value="1"/>
    </processing>

    <junctions>
        <no-turnarounds value="true"/>
        <junctions.corner-detail value="5"/>
        <junctions.limit-turn-speed value="5.50"/>
        <rectangular-lane-cut value="0"/>
    </junctions>

    <pedestrian>
        <walkingareas value="0"/>
    </pedestrian>

</configuration>
-->

<net version="1.16" junctionCornerDetail="5" lefthand="true" limitTurnSpeed="5.50" xmlns:xsi="http://www.w3.org/2001/XMLSchema-instance" xsi:noNamespaceSchemaLocation="http://sumo.dlr.de/xsd/net_file.xsd">

    <location netOffset="-363944.77,-159862.77" convBoundary="0.00,0.00,209.67,414.46" origBoundary="103.777012,1.445994,103.778897,1.449743" projParameter="+proj=utm +zone=48 +ellps=WGS84 +datum=WGS84 +units=m +no_defs"/>

    <type id="highway.bridleway" priority="1" numLanes="1" speed="2.78" allow="pedestrian" oneway="1" width="2.00"/>
    <type id="highway.bus_guideway" priority="1" numLanes="1" speed="27.78" allow="bus" oneway="1"/>
    <type id="highway.cycleway" priority="1" numLanes="1" speed="5.56" allow="bicycle" oneway="0" width="1.00"/>
    <type id="highway.footway" priority="1" numLanes="1" speed="2.78" allow="pedestrian" oneway="1" width="2.00"/>
    <type id="highway.ford" priority="1" numLanes="1" speed="2.78" allow="army" oneway="0"/>
    <type id="highway.living_street" priority="2" numLanes="1" speed="2.78" disallow="tram rail_urban rail rail_electric rail_fast ship" oneway="0"/>
    <type id="highway.motorway" priority="14" numLanes="2" speed="39.44" allow="private emergency authority army vip passenger hov taxi bus coach delivery truck trailer motorcycle evehicle custom1 custom2" oneway="1"/>
    <type id="highway.motorway_link" priority="9" numLanes="1" speed="22.22" allow="private emergency authority army vip passenger hov taxi bus coach delivery truck trailer motorcycle evehicle custom1 custom2" oneway="1"/>
    <type id="highway.path" priority="1" numLanes="1" speed="5.56" allow="pedestrian bicycle" oneway="0" width="2.00"/>
    <type id="highway.pedestrian" priority="1" numLanes="1" speed="2.78" allow="pedestrian" oneway="1" width="2.00"/>
    <type id="highway.primary" priority="12" numLanes="2" speed="27.78" disallow="tram rail_urban rail rail_electric rail_fast ship" oneway="0"/>
    <type id="highway.primary_link" priority="7" numLanes="1" speed="22.22" disallow="tram rail_urban rail rail_electric rail_fast ship" oneway="0"/>
    <type id="highway.raceway" priority="15" numLanes="2" speed="83.33" allow="vip" oneway="0"/>
    <type id="highway.residential" priority="3" numLanes="1" speed="13.89" disallow="tram rail_urban rail rail_electric rail_fast ship" oneway="0"/>
    <type id="highway.secondary" priority="11" numLanes="1" speed="27.78" disallow="tram rail_urban rail rail_electric rail_fast ship" oneway="0"/>
    <type id="highway.secondary_link" priority="6" numLanes="1" speed="22.22" disallow="tram rail_urban rail rail_electric rail_fast ship" oneway="0"/>
    <type id="highway.service" priority="1" numLanes="1" speed="5.56" allow="pedestrian delivery bicycle" oneway="0"/>
    <type id="highway.stairs" priority="1" numLanes="1" speed="1.39" allow="pedestrian" oneway="1" width="2.00"/>
    <type id="highway.step" priority="1" numLanes="1" speed="1.39" allow="pedestrian" oneway="1" width="2.00"/>
    <type id="highway.steps" priority="1" numLanes="1" speed="1.39" allow="pedestrian" oneway="1" width="2.00"/>
    <type id="highway.tertiary" priority="10" numLanes="1" speed="22.22" disallow="tram rail_urban rail rail_electric rail_fast ship" oneway="0"/>
    <type id="highway.tertiary_link" priority="5" numLanes="1" speed="22.22" disallow="tram rail_urban rail rail_electric rail_fast ship" oneway="0"/>
    <type id="highway.track" priority="1" numLanes="1" speed="5.56" allow="pedestrian motorcycle moped bicycle" oneway="0"/>
    <type id="highway.trunk" priority="13" numLanes="2" speed="27.78" disallow="pedestrian bicycle tram rail_urban rail rail_electric rail_fast ship" oneway="0"/>
    <type id="highway.trunk_link" priority="8" numLanes="1" speed="22.22" disallow="pedestrian bicycle tram rail_urban rail rail_electric rail_fast ship" oneway="0"/>
    <type id="highway.unclassified" priority="4" numLanes="1" speed="13.89" disallow="tram rail_urban rail rail_electric rail_fast ship" oneway="0"/>
    <type id="highway.unsurfaced" priority="1" numLanes="1" speed="8.33" disallow="tram rail_urban rail rail_electric rail_fast ship" oneway="0"/>
    <type id="railway.highspeed" priority="21" numLanes="1" speed="69.44" allow="rail_fast" oneway="1"/>
    <type id="railway.light_rail" priority="19" numLanes="1" speed="27.78" allow="rail_urban" oneway="1"/>
    <type id="railway.preserved" priority="16" numLanes="1" speed="27.78" allow="rail" oneway="1"/>
    <type id="railway.rail" priority="20" numLanes="1" speed="44.44" allow="rail" oneway="1"/>
    <type id="railway.subway" priority="18" numLanes="1" speed="27.78" allow="rail_urban" oneway="1"/>
    <type id="railway.tram" priority="17" numLanes="1" speed="13.89" allow="tram" oneway="1"/>

    <edge id=":cluster_244325420_244326017_244500521_244500595_0" function="internal">
        <lane id=":cluster_244325420_244326017_244500521_244500595_0_0" index="0" disallow="tram rail_urban rail rail_electric rail_fast ship" speed="6.39" length="9.08" shape="43.67,71.42 41.15,71.64 39.22,71.00 37.87,69.49 37.10,67.12"/>
    </edge>
    <edge id=":cluster_244325420_244326017_244500521_244500595_1" function="internal">
        <lane id=":cluster_244325420_244326017_244500521_244500595_1_0" index="0" disallow="tram rail_urban rail rail_electric rail_fast ship" speed="13.46" length="42.12" shape="44.52,74.51 33.98,78.68 27.33,85.37 24.56,94.56 25.66,106.26"/>
        <lane id=":cluster_244325420_244326017_244500521_244500595_1_1" index="1" disallow="tram rail_urban rail rail_electric rail_fast ship" speed="12.66" length="37.14" shape="45.37,77.59 36.10,81.28 30.25,87.18 27.82,95.30 28.80,105.63"/>
    </edge>
    <edge id=":cluster_244325420_244326017_244500521_244500595_3" function="internal">
        <lane id=":cluster_244325420_244326017_244500521_244500595_3_0" index="0" disallow="tram rail_urban rail rail_electric rail_fast ship" speed="5.37" length="6.32" shape="46.22,80.68 43.67,83.63 43.20,86.01"/>
    </edge>
    <edge id=":cluster_244325420_244326017_244500521_244500595_14" function="internal">
        <lane id=":cluster_244325420_244326017_244500521_244500595_14_0" index="0" disallow="tram rail_urban rail rail_electric rail_fast ship" speed="5.37" length="6.32" shape="43.20,86.01 44.82,87.81 48.53,89.03"/>
    </edge>
    <edge id=":cluster_244325420_244326017_244500521_244500595_4" function="internal">
        <lane id=":cluster_244325420_244326017_244500521_244500595_4_0" index="0" disallow="tram rail_urban rail rail_electric rail_fast ship" speed="7.25" length="10.91" shape="43.88,102.62 43.86,100.14 44.91,98.08 47.04,96.43 50.23,95.20"/>
    </edge>
    <edge id=":cluster_244325420_244326017_244500521_244500595_5" function="internal">
        <lane id=":cluster_244325420_244326017_244500521_244500595_5_0" index="0" disallow="tram rail_urban rail rail_electric rail_fast ship" speed="16.67" length="36.23" shape="43.88,102.62 37.10,67.12"/>
        <lane id=":cluster_244325420_244326017_244500521_244500595_5_1" index="1" disallow="tram rail_urban rail rail_electric rail_fast ship" speed="16.67" length="36.23" shape="40.74,103.25 33.94,67.67"/>
        <lane id=":cluster_244325420_244326017_244500521_244500595_5_2" index="2" disallow="tram rail_urban rail rail_electric rail_fast ship" speed="16.67" length="36.23" shape="37.60,103.88 30.79,68.21"/>
    </edge>
    <edge id=":cluster_244325420_244326017_244500521_244500595_8" function="internal">
        <lane id=":cluster_244325420_244326017_244500521_244500595_8_0" index="0" disallow="tram rail_urban rail rail_electric rail_fast ship" speed="5.45" length="9.82" shape="37.60,103.88 34.75,101.01 32.33,100.35 30.34,101.89 30.06,102.59"/>
    </edge>
    <edge id=":cluster_244325420_244326017_244500521_244500595_15" function="internal">
        <lane id=":cluster_244325420_244326017_244500521_244500595_15_0" index="0" disallow="tram rail_urban rail rail_electric rail_fast ship" speed="5.45" length="3.29" shape="30.06,102.59 28.80,105.63"/>
    </edge>
    <edge id=":cluster_244325420_244326017_244500521_244500595_9" function="internal">
        <lane id=":cluster_244325420_244326017_244500521_244500595_9_0" index="0" disallow="tram rail_urban rail rail_electric rail_fast ship" speed="16.67" length="36.82" shape="15.29,70.89 25.66,106.26"/>
        <lane id=":cluster_244325420_244326017_244500521_244500595_9_1" index="1" disallow="tram rail_urban rail rail_electric rail_fast ship" speed="16.67" length="36.82" shape="18.46,70.34 28.80,105.63"/>
    </edge>
    <edge id=":cluster_244325420_244326017_244500521_244500595_11" function="internal">
        <lane id=":cluster_244325420_244326017_244500521_244500595_11_0" index="0" disallow="tram rail_urban rail rail_electric rail_fast ship" speed="13.21" length="21.95" shape="21.63,69.79 26.34,81.60 32.15,88.78"/>
        <lane id=":cluster_244325420_244326017_244500521_244500595_11_1" index="1" disallow="tram rail_urban rail rail_electric rail_fast ship" speed="12.32" length="14.37" shape="24.80,69.25 28.90,79.63 30.89,82.15"/>
    </edge>
    <edge id=":cluster_244325420_244326017_244500521_244500595_13" function="internal">
        <lane id=":cluster_244325420_244326017_244500521_244500595_13_0" index="0" disallow="tram rail_urban rail rail_electric rail_fast ship" speed="4.69" length="5.51" shape="24.80,69.25 26.69,71.23 28.31,71.72 29.17,71.09"/>
    </edge>
    <edge id=":cluster_244325420_244326017_244500521_244500595_16" function="internal">
        <lane id=":cluster_244325420_244326017_244500521_244500595_16_0" index="0" disallow="tram rail_urban rail rail_electric rail_fast ship" speed="13.21" length="18.24" shape="32.15,88.78 32.54,89.26 40.22,92.76 49.38,92.11"/>
    </edge>
    <edge id=":cluster_244325420_244326017_244500521_244500595_17" function="internal">
        <lane id=":cluster_244325420_244326017_244500521_244500595_17_0" index="0" disallow="tram rail_urban rail rail_electric rail_fast ship" speed="12.32" length="20.42" shape="30.89,82.15 34.22,86.38 40.76,89.52 48.53,89.03"/>
    </edge>
    <edge id=":cluster_244325420_244326017_244500521_244500595_18" function="internal">
        <lane id=":cluster_244325420_244326017_244500521_244500595_18_0" index="0" disallow="tram rail_urban rail rail_electric rail_fast ship" speed="4.69" length="3.37" shape="29.17,71.09 29.68,70.71 30.79,68.21"/>
    </edge>

    <edge id="481117337#0" from="4740622266" to="cluster_244325420_244326017_244500521_244500595" name="Admiralty Road" priority="12" type="highway.primary" spreadType="center" shape="59.85,195.84 40.33,101.25 39.04,94.96">
        <lane id="481117337#0_0" index="0" disallow="tram rail_urban rail rail_electric rail_fast ship" speed="16.67" length="94.54" shape="62.98,195.19 43.88,102.62">
            <param key="origId" value="481117337"/>
        </lane>
        <lane id="481117337#0_1" index="1" disallow="tram rail_urban rail rail_electric rail_fast ship" speed="16.67" length="94.54" shape="59.85,195.84 40.74,103.25">
            <param key="origId" value="481117337"/>
        </lane>
        <lane id="481117337#0_2" index="2" disallow="tram rail_urban rail rail_electric rail_fast ship" speed="16.67" length="94.54" shape="56.72,196.49 37.60,103.88">
            <param key="origId" value="481117337"/>
        </lane>
        <param key="origTo" value="244500521"/>
    </edge>
    <edge id="537349476" from="cluster_244325420_244326017_244500521_244500595" to="4740622265" name="Admiralty Road" priority="12" type="highway.primary" spreadType="center" shape="35.75,78.21 34.46,70.70 25.30,17.03">
        <lane id="537349476_0" index="0" disallow="tram rail_urban rail rail_electric rail_fast ship" speed="16.67" length="51.37" shape="37.10,67.12 28.45,16.49">
            <param key="origId" value="537349476"/>
        </lane>
        <lane id="537349476_1" index="1" disallow="tram rail_urban rail rail_electric rail_fast ship" speed="16.67" length="51.37" shape="33.94,67.67 25.30,17.03">
            <param key="origId" value="537349476"/>
        </lane>
        <lane id="537349476_2" index="2" disallow="tram rail_urban rail rail_electric rail_fast ship" speed="16.67" length="51.37" shape="30.79,68.21 22.15,17.57">
            <param key="origId" value="537349476"/>
        </lane>
        <param key="origFrom" value="244326017"/>
    </edge>
    <edge id="537349479#0" from="cluster_244325420_244326017_244500521_244500595" to="244325423" name="Admiralty Road" priority="12" type="highway.primary" spreadType="center" shape="25.53,97.63 26.95,104.75 80.70,333.32 91.09,371.57 97.78,393.06 106.93,414.46">
        <lane id="537349479#0_0" index="0" disallow="tram rail_urban rail rail_electric rail_fast ship" speed="16.67" length="318.99" shape="25.66,106.26 79.15,333.71 89.55,372.02 96.28,393.61 105.46,415.09">
            <param key="origId" value="537349479"/>
        </lane>
        <lane id="537349479#0_1" index="1" disallow="tram rail_urban rail rail_electric rail_fast ship" speed="16.67" length="318.99" shape="28.80,105.63 82.25,332.93 92.63,371.12 99.28,392.51 108.40,413.83">
            <param key="origId" value="537349479"/>
        </lane>
        <param key="origFrom" value="244500595"/>
    </edge>
    <edge id="641127109" from="6038555305" to="cluster_244325420_244326017_244500521_244500595" name="Admiralty Road" priority="12" type="highway.primary" spreadType="center" shape="0.00,0.00 21.12,73.83 22.55,81.03">
        <lane id="641127109_0" index="0" disallow="tram rail_urban rail rail_electric rail_fast ship" speed="16.67" length="72.88" shape="-4.61,1.32 15.29,70.89">
            <param key="origId" value="641127109"/>
        </lane>
        <lane id="641127109_1" index="1" disallow="tram rail_urban rail rail_electric rail_fast ship" speed="16.67" length="72.88" shape="-1.54,0.44 18.46,70.34">
            <param key="origId" value="641127109"/>
        </lane>
        <lane id="641127109_2" index="2" disallow="tram rail_urban rail rail_electric rail_fast ship" speed="16.67" length="72.88" shape="1.54,-0.44 21.63,69.79">
            <param key="origId" value="641127109"/>
        </lane>
        <lane id="641127109_3" index="3" disallow="tram rail_urban rail rail_electric rail_fast ship" speed="16.67" length="72.88" shape="4.61,-1.32 24.80,69.25">
            <param key="origId" value="641127109"/>
        </lane>
        <param key="origTo" value="244325420"/>
    </edge>
    <edge id="664945748#0" from="cluster_244325420_244326017_244500521_244500595" to="244500528" name="Riverside Road" priority="12" type="highway.primary" spreadType="center" shape="39.04,94.96 46.44,92.92 105.23,76.76 142.82,66.18 176.12,46.99 209.67,17.53">
        <lane id="664945748#0_0" index="0" disallow="tram rail_urban rail rail_electric rail_fast ship" speed="16.67" length="180.06" shape="50.23,95.20 106.09,79.84 144.07,69.15 177.99,49.60 211.78,19.93">
            <param key="origId" value="664945748 664945748 664945747"/>
        </lane>
        <lane id="664945748#0_1" index="1" disallow="tram rail_urban rail rail_electric rail_fast ship" speed="16.67" length="180.06" shape="49.38,92.11 105.23,76.76 142.82,66.18 176.12,46.99 209.67,17.53">
            <param key="origId" value="664945748 664945748 664945747"/>
        </lane>
        <lane id="664945748#0_2" index="2" disallow="tram rail_urban rail rail_electric rail_fast ship" speed="16.67" length="180.06" shape="48.53,89.03 104.37,73.68 141.57,63.21 174.25,44.38 207.56,15.13">
            <param key="origId" value="664945748 664945748 664945747"/>
        </lane>
        <param key="origFrom" value="244500521"/>
    </edge>
    <edge id="709876255#0" from="244325169" to="cluster_244325420_244326017_244500521_244500595" name="Riverside Road" priority="12" type="highway.primary" spreadType="center" shape="135.54,54.81 43.11,76.48 35.75,78.21">
        <lane id="709876255#0_0" index="0" disallow="tram rail_urban rail rail_electric rail_fast ship" speed="16.67" length="93.05" shape="134.44,50.14 43.67,71.42">
            <param key="origId" value="709876255"/>
        </lane>
        <lane id="709876255#0_1" index="1" disallow="tram rail_urban rail rail_electric rail_fast ship" speed="16.67" length="93.05" shape="135.17,53.25 44.52,74.51">
            <param key="origId" value="709876255"/>
        </lane>
        <lane id="709876255#0_2" index="2" disallow="tram rail_urban rail rail_electric rail_fast ship" speed="16.67" length="93.05" shape="135.91,56.37 45.37,77.59">
            <param key="origId" value="709876255"/>
        </lane>
        <lane id="709876255#0_3" index="3" disallow="tram rail_urban rail rail_electric rail_fast ship" speed="16.67" length="93.05" shape="136.64,59.48 46.22,80.68">
            <param key="origId" value="709876255"/>
        </lane>
        <param key="origTo" value="244326017"/>
    </edge>

    <tlLogic id="cluster_244325420_244326017_244500521_244500595" type="actuated" programID="0" offset="0">
        <phase duration="36" state="rrrrGGGGgGGggg" minDur="7" maxDur="50"/>
        <phase duration="4"  state="rrrryyyyyyyggg"/>
        <phase duration="6"  state="rrrrrrrrrGGGGG" minDur="7" maxDur="50"/>
        <phase duration="4"  state="rrrrrrrrryyyyy"/>
        <phase duration="36" state="GGGgGrrrrrrrrr" minDur="7" maxDur="50"/>
        <phase duration="4"  state="yyyyyrrrrrrrrr"/>
    </tlLogic>

    <junction id="244325169" type="dead_end" x="135.54" y="54.81" incLanes="" intLanes="" shape="137.00,61.04 134.08,48.58"/>
    <junction id="244325423" type="dead_end" x="106.93" y="414.46" incLanes="537349479#0_0 537349479#0_1" intLanes="" shape="103.99,415.72 109.87,413.20"/>
    <junction id="244500528" type="dead_end" x="209.67" y="17.53" incLanes="664945748#0_0 664945748#0_1 664945748#0_2" intLanes="" shape="212.84,21.14 206.50,13.92"/>
    <junction id="4740622265" type="dead_end" x="25.30" y="17.03" incLanes="537349476_0 537349476_1 537349476_2" intLanes="" shape="30.03,16.22 20.57,17.84"/>
    <junction id="4740622266" type="dead_end" x="59.85" y="195.84" incLanes="" intLanes="" shape="55.15,196.81 64.55,194.87"/>
    <junction id="6038555305" type="dead_end" x="0.00" y="0.00" incLanes="" intLanes="" shape="6.15,-1.76 -6.15,1.76"/>
    <junction id="cluster_244325420_244326017_244500521_244500595" type="traffic_light" x="30.72" y="87.96" incLanes="709876255#0_0 709876255#0_1 709876255#0_2 709876255#0_3 481117337#0_0 481117337#0_1 481117337#0_2 641127109_0 641127109_1 641127109_2 641127109_3" intLanes=":cluster_244325420_244326017_244500521_244500595_0_0 :cluster_244325420_244326017_244500521_244500595_1_0 :cluster_244325420_244326017_244500521_244500595_1_1 :cluster_244325420_244326017_244500521_244500595_14_0 :cluster_244325420_244326017_244500521_244500595_4_0 :cluster_244325420_244326017_244500521_244500595_5_0 :cluster_244325420_244326017_244500521_244500595_5_1 :cluster_244325420_244326017_244500521_244500595_5_2 :cluster_244325420_244326017_244500521_244500595_15_0 :cluster_244325420_244326017_244500521_244500595_9_0 :cluster_244325420_244326017_244500521_244500595_9_1 :cluster_244325420_244326017_244500521_244500595_16_0 :cluster_244325420_244326017_244500521_244500595_17_0 :cluster_244325420_244326017_244500521_244500595_18_0" shape="43.24,69.88 50.65,96.74 47.40,98.09 46.35,98.96 45.67,99.95 45.37,101.07 45.45,102.31 24.09,106.57 13.70,71.16 38.67,66.85 39.48,68.94 40.15,69.58 41.00,69.95 42.03,70.05">
        <request index="0"  response="00000011100000" foes="00000011100000" cont="0"/>
        <request index="1"  response="01111011100000" foes="01111111100000" cont="0"/>
        <request index="2"  response="01111011100000" foes="01111111100000" cont="0"/>
        <request index="3"  response="01100000000000" foes="01100000000000" cont="1"/>
        <request index="4"  response="00000000000000" foes="00000000000000" cont="0"/>
        <request index="5"  response="00000000000000" foes="11100000000111" cont="0"/>
        <request index="6"  response="00000000000000" foes="11100000000111" cont="0"/>
        <request index="7"  response="00000000000000" foes="11100000000111" cont="0"/>
        <request index="8"  response="00011000000110" foes="00011000000110" cont="1"/>
        <request index="9"  response="00000000000000" foes="00000100000110" cont="0"/>
        <request index="10" response="00000000000000" foes="00000100000110" cont="0"/>
        <request index="11" response="00000011100000" foes="00000011101110" cont="1"/>
        <request index="12" response="00000011100000" foes="00000011101110" cont="1"/>
        <request index="13" response="00000011100000" foes="00000011100000" cont="1"/>
        <param key="origEdgeIds" value="22775170 22775171 481117336 537349477"/>
        <param key="origId" value="244325420 244326017 244500521 244500595"/>
    </junction>

    <junction id=":cluster_244325420_244326017_244500521_244500595_14_0" type="internal" x="43.20" y="86.01" incLanes=":cluster_244325420_244326017_244500521_244500595_3_0 481117337#0_0 641127109_2 641127109_3" intLanes=":cluster_244325420_244326017_244500521_244500595_4_0 :cluster_244325420_244326017_244500521_244500595_11_0 :cluster_244325420_244326017_244500521_244500595_11_1"/>
    <junction id=":cluster_244325420_244326017_244500521_244500595_15_0" type="internal" x="30.06" y="102.59" incLanes=":cluster_244325420_244326017_244500521_244500595_8_0 641127109_0 641127109_1 709876255#0_1 709876255#0_2" intLanes=":cluster_244325420_244326017_244500521_244500595_1_0 :cluster_244325420_244326017_244500521_244500595_1_1 :cluster_244325420_244326017_244500521_244500595_9_0 :cluster_244325420_244326017_244500521_244500595_9_1"/>
    <junction id=":cluster_244325420_244326017_244500521_244500595_16_0" type="internal" x="32.15" y="88.78" incLanes=":cluster_244325420_244326017_244500521_244500595_11_0 481117337#0_0 481117337#0_1 481117337#0_2" intLanes=":cluster_244325420_244326017_244500521_244500595_1_0 :cluster_244325420_244326017_244500521_244500595_1_1 :cluster_244325420_244326017_244500521_244500595_3_0 :cluster_244325420_244326017_244500521_244500595_4_0 :cluster_244325420_244326017_244500521_244500595_5_0 :cluster_244325420_244326017_244500521_244500595_5_1 :cluster_244325420_244326017_244500521_244500595_5_2"/>
    <junction id=":cluster_244325420_244326017_244500521_244500595_17_0" type="internal" x="30.89" y="82.15" incLanes=":cluster_244325420_244326017_244500521_244500595_11_1 481117337#0_0 481117337#0_1 481117337#0_2" intLanes=":cluster_244325420_244326017_244500521_244500595_1_0 :cluster_244325420_244326017_244500521_244500595_1_1 :cluster_244325420_244326017_244500521_244500595_3_0 :cluster_244325420_244326017_244500521_244500595_4_0 :cluster_244325420_244326017_244500521_244500595_5_0 :cluster_244325420_244326017_244500521_244500595_5_1 :cluster_244325420_244326017_244500521_244500595_5_2"/>
    <junction id=":cluster_244325420_244326017_244500521_244500595_18_0" type="internal" x="29.17" y="71.09" incLanes=":cluster_244325420_244326017_244500521_244500595_13_0 481117337#0_0 481117337#0_1 481117337#0_2 709876255#0_0" intLanes=":cluster_244325420_244326017_244500521_244500595_0_0 :cluster_244325420_244326017_244500521_244500595_5_0 :cluster_244325420_244326017_244500521_244500595_5_1 :cluster_244325420_244326017_244500521_244500595_5_2"/>

    <connection from="481117337#0" to="664945748#0" fromLane="0" toLane="0" via=":cluster_244325420_244326017_244500521_244500595_4_0" tl="cluster_244325420_244326017_244500521_244500595" linkIndex="4" dir="l" state="O"/>
    <connection from="481117337#0" to="537349476" fromLane="0" toLane="0" via=":cluster_244325420_244326017_244500521_244500595_5_0" tl="cluster_244325420_244326017_244500521_244500595" linkIndex="5" dir="s" state="O"/>
    <connection from="481117337#0" to="537349476" fromLane="1" toLane="1" via=":cluster_244325420_244326017_244500521_244500595_5_1" tl="cluster_244325420_244326017_244500521_244500595" linkIndex="6" dir="s" state="O"/>
    <connection from="481117337#0" to="537349476" fromLane="2" toLane="2" via=":cluster_244325420_244326017_244500521_244500595_5_2" tl="cluster_244325420_244326017_244500521_244500595" linkIndex="7" dir="s" state="O"/>
    <connection from="481117337#0" to="537349479#0" fromLane="2" toLane="1" via=":cluster_244325420_244326017_244500521_244500595_8_0" tl="cluster_244325420_244326017_244500521_244500595" linkIndex="8" dir="T" state="o"/>
    <connection from="641127109" to="537349479#0" fromLane="0" toLane="0" via=":cluster_244325420_244326017_244500521_244500595_9_0" tl="cluster_244325420_244326017_244500521_244500595" linkIndex="9" dir="s" state="O"/>
    <connection from="641127109" to="537349479#0" fromLane="1" toLane="1" via=":cluster_244325420_244326017_244500521_244500595_9_1" tl="cluster_244325420_244326017_244500521_244500595" linkIndex="10" dir="s" state="O"/>
    <connection from="641127109" to="664945748#0" fromLane="2" toLane="1" via=":cluster_244325420_244326017_244500521_244500595_11_0" tl="cluster_244325420_244326017_244500521_244500595" linkIndex="11" dir="r" state="o"/>
    <connection from="641127109" to="664945748#0" fromLane="3" toLane="2" via=":cluster_244325420_244326017_244500521_244500595_11_1" tl="cluster_244325420_244326017_244500521_244500595" linkIndex="12" dir="r" state="o"/>
    <connection from="641127109" to="537349476" fromLane="3" toLane="2" via=":cluster_244325420_244326017_244500521_244500595_13_0" tl="cluster_244325420_244326017_244500521_244500595" linkIndex="13" dir="T" state="o"/>
    <connection from="709876255#0" to="537349476" fromLane="0" toLane="0" via=":cluster_244325420_244326017_244500521_244500595_0_0" tl="cluster_244325420_244326017_244500521_244500595" linkIndex="0" dir="l" state="o"/>
    <connection from="709876255#0" to="537349479#0" fromLane="1" toLane="0" via=":cluster_244325420_244326017_244500521_244500595_1_0" tl="cluster_244325420_244326017_244500521_244500595" linkIndex="1" dir="r" state="o"/>
    <connection from="709876255#0" to="537349479#0" fromLane="2" toLane="1" via=":cluster_244325420_244326017_244500521_244500595_1_1" tl="cluster_244325420_244326017_244500521_244500595" linkIndex="2" dir="r" state="o"/>
    <connection from="709876255#0" to="664945748#0" fromLane="3" toLane="2" via=":cluster_244325420_244326017_244500521_244500595_3_0" tl="cluster_244325420_244326017_244500521_244500595" linkIndex="3" dir="T" state="o"/>

    <connection from=":cluster_244325420_244326017_244500521_244500595_0" to="537349476" fromLane="0" toLane="0" dir="l" state="M"/>
    <connection from=":cluster_244325420_244326017_244500521_244500595_1" to="537349479#0" fromLane="0" toLane="0" dir="r" state="M"/>
    <connection from=":cluster_244325420_244326017_244500521_244500595_1" to="537349479#0" fromLane="1" toLane="1" dir="r" state="M"/>
    <connection from=":cluster_244325420_244326017_244500521_244500595_3" to="664945748#0" fromLane="0" toLane="2" via=":cluster_244325420_244326017_244500521_244500595_14_0" dir="T" state="m"/>
    <connection from=":cluster_244325420_244326017_244500521_244500595_14" to="664945748#0" fromLane="0" toLane="2" dir="T" state="M"/>
    <connection from=":cluster_244325420_244326017_244500521_244500595_4" to="664945748#0" fromLane="0" toLane="0" dir="l" state="M"/>
    <connection from=":cluster_244325420_244326017_244500521_244500595_5" to="537349476" fromLane="0" toLane="0" dir="s" state="M"/>
    <connection from=":cluster_244325420_244326017_244500521_244500595_5" to="537349476" fromLane="1" toLane="1" dir="s" state="M"/>
    <connection from=":cluster_244325420_244326017_244500521_244500595_5" to="537349476" fromLane="2" toLane="2" dir="s" state="M"/>
    <connection from=":cluster_244325420_244326017_244500521_244500595_8" to="537349479#0" fromLane="0" toLane="1" via=":cluster_244325420_244326017_244500521_244500595_15_0" dir="T" state="m"/>
    <connection from=":cluster_244325420_244326017_244500521_244500595_15" to="537349479#0" fromLane="0" toLane="1" dir="T" state="M"/>
    <connection from=":cluster_244325420_244326017_244500521_244500595_9" to="537349479#0" fromLane="0" toLane="0" dir="s" state="M"/>
    <connection from=":cluster_244325420_244326017_244500521_244500595_9" to="537349479#0" fromLane="1" toLane="1" dir="s" state="M"/>
    <connection from=":cluster_244325420_244326017_244500521_244500595_11" to="664945748#0" fromLane="0" toLane="1" via=":cluster_244325420_244326017_244500521_244500595_16_0" dir="r" state="m"/>
    <connection from=":cluster_244325420_244326017_244500521_244500595_16" to="664945748#0" fromLane="0" toLane="1" dir="r" state="M"/>