<?xml version="1.0" encoding="UTF-8"?>

<!-- generated on 2023-07-19 15:28:10 by Eclipse SUMO netconvert Version 1.17.0
<configuration xmlns:xsi="http://www.w3.org/2001/XMLSchema-instance" xsi:noNamespaceSchemaLocation="http://sumo.dlr.de/xsd/netconvertConfiguration.xsd">

    <input>
        <sumo-net-file value="osm.net.xml.gz"/>
    </input>

    <output>
        <output-file value="osm.net.xml"/>
        <output.street-names value="true"/>
    </output>

    <processing>
        <geometry.min-radius.fix.railways value="false"/>
        <geometry.max-grade.fix value="false"/>
        <offset.disable-normalization value="true"/>
        <lefthand value="1"/>
    </processing>

    <junctions>
        <no-turnarounds value="true"/>
        <junctions.corner-detail value="5"/>
        <junctions.limit-turn-speed value="5.50"/>
        <rectangular-lane-cut value="0"/>
    </junctions>

    <pedestrian>
        <walkingareas value="0"/>
    </pedestrian>

</configuration>
-->

<net version="1.16" junctionCornerDetail="5" lefthand="true" limitTurnSpeed="5.50" xmlns:xsi="http://www.w3.org/2001/XMLSchema-instance" xsi:noNamespaceSchemaLocation="http://sumo.dlr.de/xsd/net_file.xsd">

    <location netOffset="-360147.45,-153418.82" convBoundary="0.00,0.00,712.75,475.70" origBoundary="103.742915,1.387691,103.749320,1.391993" projParameter="+proj=utm +zone=48 +ellps=WGS84 +datum=WGS84 +units=m +no_defs"/>

    <type id="highway.bridleway" priority="1" numLanes="1" speed="2.78" allow="pedestrian" oneway="1" width="2.00"/>
    <type id="highway.bus_guideway" priority="1" numLanes="1" speed="27.78" allow="bus" oneway="1"/>
    <type id="highway.cycleway" priority="1" numLanes="1" speed="5.56" allow="bicycle" oneway="0" width="1.00"/>
    <type id="highway.footway" priority="1" numLanes="1" speed="2.78" allow="pedestrian" oneway="1" width="2.00"/>
    <type id="highway.ford" priority="1" numLanes="1" speed="2.78" allow="army" oneway="0"/>
    <type id="highway.living_street" priority="2" numLanes="1" speed="2.78" disallow="tram rail_urban rail rail_electric rail_fast ship" oneway="0"/>
    <type id="highway.motorway" priority="14" numLanes="2" speed="39.44" allow="private emergency authority army vip passenger hov taxi bus coach delivery truck trailer motorcycle evehicle custom1 custom2" oneway="1"/>
    <type id="highway.motorway_link" priority="9" numLanes="1" speed="22.22" allow="private emergency authority army vip passenger hov taxi bus coach delivery truck trailer motorcycle evehicle custom1 custom2" oneway="1"/>
    <type id="highway.path" priority="1" numLanes="1" speed="5.56" allow="pedestrian bicycle" oneway="0" width="2.00"/>
    <type id="highway.pedestrian" priority="1" numLanes="1" speed="2.78" allow="pedestrian" oneway="1" width="2.00"/>
    <type id="highway.primary" priority="12" numLanes="2" speed="27.78" disallow="tram rail_urban rail rail_electric rail_fast ship" oneway="0"/>
    <type id="highway.primary_link" priority="7" numLanes="1" speed="22.22" disallow="tram rail_urban rail rail_electric rail_fast ship" oneway="0"/>
    <type id="highway.raceway" priority="15" numLanes="2" speed="83.33" allow="vip" oneway="0"/>
    <type id="highway.residential" priority="3" numLanes="1" speed="13.89" disallow="tram rail_urban rail rail_electric rail_fast ship" oneway="0"/>
    <type id="highway.secondary" priority="11" numLanes="1" speed="27.78" disallow="tram rail_urban rail rail_electric rail_fast ship" oneway="0"/>
    <type id="highway.secondary_link" priority="6" numLanes="1" speed="22.22" disallow="tram rail_urban rail rail_electric rail_fast ship" oneway="0"/>
    <type id="highway.service" priority="1" numLanes="1" speed="5.56" allow="pedestrian delivery bicycle" oneway="0"/>
    <type id="highway.stairs" priority="1" numLanes="1" speed="1.39" allow="pedestrian" oneway="1" width="2.00"/>
    <type id="highway.step" priority="1" numLanes="1" speed="1.39" allow="pedestrian" oneway="1" width="2.00"/>
    <type id="highway.steps" priority="1" numLanes="1" speed="1.39" allow="pedestrian" oneway="1" width="2.00"/>
    <type id="highway.tertiary" priority="10" numLanes="1" speed="22.22" disallow="tram rail_urban rail rail_electric rail_fast ship" oneway="0"/>
    <type id="highway.tertiary_link" priority="5" numLanes="1" speed="22.22" disallow="tram rail_urban rail rail_electric rail_fast ship" oneway="0"/>
    <type id="highway.track" priority="1" numLanes="1" speed="5.56" allow="pedestrian motorcycle moped bicycle" oneway="0"/>
    <type id="highway.trunk" priority="13" numLanes="2" speed="27.78" disallow="pedestrian bicycle tram rail_urban rail rail_electric rail_fast ship" oneway="0"/>
    <type id="highway.trunk_link" priority="8" numLanes="1" speed="22.22" disallow="pedestrian bicycle tram rail_urban rail rail_electric rail_fast ship" oneway="0"/>
    <type id="highway.unclassified" priority="4" numLanes="1" speed="13.89" disallow="tram rail_urban rail rail_electric rail_fast ship" oneway="0"/>
    <type id="highway.unsurfaced" priority="1" numLanes="1" speed="8.33" disallow="tram rail_urban rail rail_electric rail_fast ship" oneway="0"/>
    <type id="railway.highspeed" priority="21" numLanes="1" speed="69.44" allow="rail_fast" oneway="1"/>
    <type id="railway.light_rail" priority="19" numLanes="1" speed="27.78" allow="rail_urban" oneway="1"/>
    <type id="railway.preserved" priority="16" numLanes="1" speed="27.78" allow="rail" oneway="1"/>
    <type id="railway.rail" priority="20" numLanes="1" speed="44.44" allow="rail" oneway="1"/>
    <type id="railway.subway" priority="18" numLanes="1" speed="27.78" allow="rail_urban" oneway="1"/>
    <type id="railway.tram" priority="17" numLanes="1" speed="13.89" allow="tram" oneway="1"/>

    <edge id=":1734061677_0" function="internal">
        <lane id=":1734061677_0_0" index="0" allow="private emergency authority army vip passenger hov taxi bus coach delivery truck trailer motorcycle evehicle custom1 custom2" speed="13.89" length="4.54" shape="243.53,219.42 244.69,220.09 245.43,220.64 246.08,221.30 246.99,222.30"/>
    </edge>
    <edge id=":1734061677_1" function="internal">
        <lane id=":1734061677_1_0" index="0" allow="private emergency authority army vip passenger hov taxi bus coach delivery truck trailer motorcycle evehicle custom1 custom2" speed="13.89" length="12.23" shape="245.03,216.60 256.09,222.33"/>
        <lane id=":1734061677_1_1" index="1" allow="private emergency authority army vip passenger hov taxi bus coach delivery truck trailer motorcycle evehicle custom1 custom2" speed="13.89" length="12.23" shape="246.53,213.77 257.39,219.41"/>
        <lane id=":1734061677_1_2" index="2" allow="private emergency authority army vip passenger hov taxi bus coach delivery truck trailer motorcycle evehicle custom1 custom2" speed="13.89" length="12.23" shape="248.04,210.95 258.69,216.48"/>
    </edge>
    <edge id=":1734061685_0" function="internal">
        <lane id=":1734061685_0_0" index="0" allow="private emergency authority army vip passenger hov taxi bus coach delivery truck trailer motorcycle evehicle custom1 custom2" speed="13.89" length="22.55" shape="319.38,249.69 323.59,249.19 328.78,248.99 334.87,249.36 341.79,250.53"/>
    </edge>
    <edge id=":1734061685_1" function="internal">
        <lane id=":1734061685_1_0" index="0" allow="private emergency authority army vip passenger hov taxi bus coach delivery truck trailer motorcycle evehicle custom1 custom2" speed="13.89" length="22.54" shape="319.97,244.73 341.79,250.53"/>
        <lane id=":1734061685_1_1" index="1" allow="private emergency authority army vip passenger hov taxi bus coach delivery truck trailer motorcycle evehicle custom1 custom2" speed="13.89" length="22.54" shape="320.74,241.62 342.50,247.41"/>
    </edge>
    <edge id=":1734061695_0" function="internal">
        <lane id=":1734061695_0_0" index="0" allow="private emergency authority army vip passenger hov taxi bus coach delivery truck trailer motorcycle evehicle custom1 custom2" speed="14.78" length="3.53" shape="290.33,268.14 290.71,267.17 291.03,266.53 291.45,265.94 292.12,265.15"/>
    </edge>
    <edge id=":1734061695_1" function="internal">
        <lane id=":1734061695_1_0" index="0" disallow="tram rail_urban rail rail_electric rail_fast ship" speed="16.67" length="5.85" shape="287.34,267.01 288.01,265.30 288.46,264.13 288.85,262.94 289.35,261.18"/>
        <lane id=":1734061695_1_1" index="1" disallow="tram rail_urban rail rail_electric rail_fast ship" speed="16.67" length="5.85" shape="284.35,265.87 284.98,264.26 285.41,263.15 285.79,262.02 286.26,260.35"/>
        <lane id=":1734061695_1_2" index="2" disallow="tram rail_urban rail rail_electric rail_fast ship" speed="16.67" length="5.85" shape="281.36,264.74 281.95,263.21 282.36,262.16 282.72,261.10 283.17,259.52"/>
    </edge>
    <edge id=":243853687_0" function="internal">
        <lane id=":243853687_0_0" index="0" allow="private emergency authority army vip passenger hov taxi bus coach delivery truck trailer motorcycle evehicle custom1 custom2" speed="13.89" length="8.21" shape="481.45,178.00 479.20,177.14 477.81,176.19 476.41,175.24 474.17,174.36"/>
        <lane id=":243853687_0_1" index="1" allow="private emergency authority army vip passenger hov taxi bus coach delivery truck trailer motorcycle evehicle custom1 custom2" speed="13.89" length="8.21" shape="480.62,181.09 478.37,180.23 476.96,179.28 475.56,178.32 473.32,177.44"/>
        <lane id=":243853687_0_2" index="2" allow="private emergency authority army vip passenger hov taxi bus coach delivery truck trailer motorcycle evehicle custom1 custom2" speed="13.89" length="8.21" shape="480.62,181.09 478.23,180.71 476.54,180.82 474.84,180.93 472.46,180.53"/>
    </edge>
    <edge id=":243853711_0" function="internal">
        <lane id=":243853711_0_0" index="0" allow="private emergency authority army vip passenger hov taxi bus coach delivery truck trailer motorcycle evehicle custom1 custom2" speed="13.89" length="7.76" shape="382.40,256.48 384.56,257.22 385.93,258.06 387.32,258.84 389.52,259.39"/>
    </edge>
    <edge id=":2524039511_0" function="internal">
        <lane id=":2524039511_0_0" index="0" disallow="tram rail_urban rail rail_electric rail_fast ship" speed="16.67" length="8.20" shape="320.42,151.52 321.39,149.31 322.40,147.95 323.40,146.58 324.36,144.37"/>
        <lane id=":2524039511_0_1" index="1" disallow="tram rail_urban rail rail_electric rail_fast ship" speed="16.67" length="8.20" shape="317.37,150.54 318.34,148.34 319.35,146.98 320.35,145.62 321.30,143.42"/>
    </edge>
    <edge id=":3933336685_0" function="internal">
        <lane id=":3933336685_0_0" index="0" allow="private emergency authority army vip passenger hov taxi bus coach delivery truck trailer motorcycle evehicle custom1 custom2" speed="13.89" length="9.73" shape="284.36,112.28 281.50,112.80 279.48,113.26 277.52,113.26 274.88,112.38"/>
    </edge>
    <edge id=":3933336685_1" function="internal">
        <lane id=":3933336685_1_0" index="0" allow="private emergency authority army vip passenger hov taxi bus coach delivery truck trailer motorcycle evehicle custom1 custom2" speed="13.89" length="9.73" shape="283.82,116.10 274.88,112.38"/>
        <lane id=":3933336685_1_1" index="1" allow="private emergency authority army vip passenger hov taxi bus coach delivery truck trailer motorcycle evehicle custom1 custom2" speed="13.89" length="9.73" shape="282.59,119.05 273.57,115.30"/>
    </edge>
    <edge id=":3933336688_0" function="internal">
        <lane id=":3933336688_0_0" index="0" allow="private emergency authority army vip passenger hov taxi bus coach delivery truck trailer motorcycle evehicle custom1 custom2" speed="15.28" length="5.68" shape="341.35,100.37 341.35,98.69 341.46,97.54 341.67,96.40 341.98,94.74"/>
    </edge>
    <edge id=":3933336688_1" function="internal">
        <lane id=":3933336688_1_0" index="0" disallow="tram rail_urban rail rail_electric rail_fast ship" speed="16.67" length="4.48" shape="337.73,98.72 338.12,97.40 338.37,96.49 338.58,95.56 338.83,94.20"/>
        <lane id=":3933336688_1_1" index="1" disallow="tram rail_urban rail rail_electric rail_fast ship" speed="16.67" length="4.48" shape="334.66,97.84 335.02,96.61 335.25,95.77 335.45,94.92 335.67,93.67"/>
    </edge>
    <edge id=":3933336692_0" function="internal">
        <lane id=":3933336692_0_0" index="0" allow="private emergency authority army vip passenger hov taxi bus coach delivery truck trailer motorcycle evehicle custom1 custom2" speed="13.89" length="7.58" shape="370.33,144.23 368.24,143.51 366.95,142.68 365.80,141.60 364.13,140.08"/>
    </edge>
    <edge id=":3933336692_1" function="internal">
        <lane id=":3933336692_1_0" index="0" allow="private emergency authority army vip passenger hov taxi bus coach delivery truck trailer motorcycle evehicle custom1 custom2" speed="13.89" length="8.27" shape="369.49,147.32 367.27,146.42 365.92,145.38 364.58,144.33 362.37,143.38"/>
        <lane id=":3933336692_1_1" index="1" allow="private emergency authority army vip passenger hov taxi bus coach delivery truck trailer motorcycle evehicle custom1 custom2" speed="13.89" length="8.27" shape="368.66,150.41 366.42,149.50 365.06,148.46 363.70,147.41 361.47,146.46"/>
        <lane id=":3933336692_1_2" index="2" allow="private emergency authority army vip passenger hov taxi bus coach delivery truck trailer motorcycle evehicle custom1 custom2" speed="13.89" length="8.27" shape="367.83,153.50 365.57,152.58 364.19,151.54 362.82,150.48 360.58,149.53"/>
    </edge>
    <edge id=":4606931515_0" function="internal">
        <lane id=":4606931515_0_0" index="0" allow="private emergency authority army vip passenger hov taxi bus coach delivery truck trailer motorcycle evehicle custom1 custom2" speed="15.28" length="22.01" shape="264.52,261.65 264.49,265.81 264.45,270.83 263.93,276.72 262.45,283.47"/>
    </edge>
    <edge id=":4606931515_1" function="internal">
        <lane id=":4606931515_1_0" index="0" disallow="tram rail_urban rail rail_electric rail_fast ship" speed="16.67" length="22.02" shape="268.57,262.32 262.45,283.47"/>
        <lane id=":4606931515_1_1" index="1" disallow="tram rail_urban rail rail_electric rail_fast ship" speed="16.67" length="22.02" shape="271.64,263.21 265.52,284.38"/>
    </edge>
    <edge id=":4606931516_0" function="internal">
        <lane id=":4606931516_0_0" index="0" allow="private emergency authority army vip passenger hov taxi bus coach delivery truck trailer motorcycle evehicle custom1 custom2" speed="11.32" length="7.73" shape="320.25,88.61 319.61,90.72 318.71,91.99 317.45,93.06 315.70,94.57"/>
    </edge>
    <edge id=":4606931516_1" function="internal">
        <lane id=":4606931516_1_0" index="0" disallow="tram rail_urban rail rail_electric rail_fast ship" speed="16.67" length="8.97" shape="323.39,89.24 322.52,91.58 321.34,92.95 320.08,94.30 318.99,96.58"/>
        <lane id=":4606931516_1_1" index="1" disallow="tram rail_urban rail rail_electric rail_fast ship" speed="16.67" length="8.97" shape="326.52,89.87 325.64,92.30 324.44,93.73 323.17,95.14 322.05,97.51"/>
        <lane id=":4606931516_1_2" index="2" disallow="tram rail_urban rail rail_electric rail_fast ship" speed="16.67" length="8.97" shape="329.66,90.50 328.76,93.02 327.54,94.51 326.25,95.98 325.11,98.44"/>
    </edge>
    <edge id=":6004658356_0" function="internal">
        <lane id=":6004658356_0_0" index="0" disallow="tram rail_urban rail rail_electric rail_fast ship" speed="16.67" length="8.40" shape="271.57,308.51 272.93,306.38 274.51,305.34 276.08,304.29 277.43,302.16"/>
        <lane id=":6004658356_0_1" index="1" disallow="tram rail_urban rail rail_electric rail_fast ship" speed="16.67" length="8.40" shape="271.57,308.51 274.43,301.03"/>
        <lane id=":6004658356_0_2" index="2" disallow="tram rail_urban rail rail_electric rail_fast ship" speed="16.67" length="8.40" shape="268.59,307.36 271.44,299.89"/>
        <lane id=":6004658356_0_3" index="3" disallow="tram rail_urban rail rail_electric rail_fast ship" speed="16.67" length="8.40" shape="268.59,307.36 269.01,304.89 268.53,303.06 268.05,301.23 268.45,298.76"/>
    </edge>
    <edge id=":6005526116_0" function="internal">
        <lane id=":6005526116_0_0" index="0" allow="private emergency authority army vip passenger hov taxi bus coach delivery truck trailer motorcycle evehicle custom1 custom2" speed="13.89" length="8.21" shape="418.92,159.04 416.67,158.16 415.26,157.20 413.86,156.25 411.60,155.38"/>
        <lane id=":6005526116_0_1" index="1" allow="private emergency authority army vip passenger hov taxi bus coach delivery truck trailer motorcycle evehicle custom1 custom2" speed="13.89" length="8.21" shape="418.92,159.04 416.54,158.64 414.85,158.75 413.15,158.86 410.77,158.47"/>
        <lane id=":6005526116_0_2" index="2" allow="private emergency authority army vip passenger hov taxi bus coach delivery truck trailer motorcycle evehicle custom1 custom2" speed="13.89" length="8.21" shape="418.06,162.13 415.69,161.73 414.00,161.84 412.31,161.95 409.93,161.56"/>
        <lane id=":6005526116_0_3" index="3" allow="private emergency authority army vip passenger hov taxi bus coach delivery truck trailer motorcycle evehicle custom1 custom2" speed="13.89" length="8.21" shape="417.21,165.21 414.84,164.82 413.16,164.92 411.47,165.03 409.10,164.65"/>
    </edge>
    <edge id=":6137108870_0" function="internal">
        <lane id=":6137108870_0_0" index="0" allow="private emergency authority army vip passenger hov taxi bus coach delivery truck trailer motorcycle evehicle custom1 custom2" speed="13.89" length="8.21" shape="185.11,183.99 187.08,185.38 188.21,186.64 189.34,187.90 191.31,189.29"/>
        <lane id=":6137108870_0_1" index="1" allow="private emergency authority army vip passenger hov taxi bus coach delivery truck trailer motorcycle evehicle custom1 custom2" speed="13.89" length="8.21" shape="186.66,181.20 188.64,182.58 189.77,183.84 190.90,185.10 192.87,186.49"/>
        <lane id=":6137108870_0_2" index="2" allow="private emergency authority army vip passenger hov taxi bus coach delivery truck trailer motorcycle evehicle custom1 custom2" speed="13.89" length="8.21" shape="186.66,181.20 188.88,182.15 190.55,182.45 192.22,182.75 194.43,183.70"/>
    </edge>
    <edge id=":6682436291_0" function="internal">
        <lane id=":6682436291_0_0" index="0" allow="private emergency authority army vip passenger hov taxi bus coach delivery truck trailer motorcycle evehicle custom1 custom2" speed="13.89" length="8.19" shape="207.62,198.42 209.61,199.82 210.76,201.09 211.92,202.34 213.93,203.69"/>
        <lane id=":6682436291_0_1" index="1" allow="private emergency authority army vip passenger hov taxi bus coach delivery truck trailer motorcycle evehicle custom1 custom2" speed="13.89" length="8.19" shape="207.62,198.42 209.84,199.38 211.51,199.67 213.19,199.95 215.43,200.86"/>
        <lane id=":6682436291_0_2" index="2" allow="private emergency authority army vip passenger hov taxi bus coach delivery truck trailer motorcycle evehicle custom1 custom2" speed="13.89" length="8.19" shape="209.18,195.63 211.38,196.58 213.04,196.86 214.71,197.14 216.93,198.04"/>
        <lane id=":6682436291_0_3" index="3" allow="private emergency authority army vip passenger hov taxi bus coach delivery truck trailer motorcycle evehicle custom1 custom2" speed="13.89" length="8.19" shape="210.74,192.84 212.93,193.77 214.57,194.06 216.23,194.32 218.43,195.21"/>
    </edge>
    <edge id=":7677000982_0" function="internal">
        <lane id=":7677000982_0_0" index="0" disallow="tram rail_urban rail rail_electric rail_fast ship" speed="16.67" length="8.21" shape="329.22,52.41 328.47,54.72 327.60,56.18 326.74,57.65 326.02,59.96"/>
        <lane id=":7677000982_0_1" index="1" disallow="tram rail_urban rail rail_electric rail_fast ship" speed="16.67" length="8.21" shape="329.22,52.41 328.96,54.81 329.17,56.50 329.38,58.19 329.15,60.59"/>
        <lane id=":7677000982_0_2" index="2" disallow="tram rail_urban rail rail_electric rail_fast ship" speed="16.67" length="8.21" shape="332.34,53.08 332.09,55.47 332.30,57.15 332.52,58.83 332.29,61.22"/>
        <lane id=":7677000982_0_3" index="3" disallow="tram rail_urban rail rail_electric rail_fast ship" speed="16.67" length="8.21" shape="335.47,53.75 335.22,56.13 335.43,57.80 335.65,59.47 335.43,61.86"/>
    </edge>
    <edge id=":cluster_243713055_4606931517_0" function="internal">
        <lane id=":cluster_243713055_4606931517_0_0" index="0" disallow="tram rail_urban rail rail_electric rail_fast ship" speed="16.67" length="17.78" shape="311.46,121.40 306.17,138.27"/>
        <lane id=":cluster_243713055_4606931517_0_1" index="1" disallow="tram rail_urban rail rail_electric rail_fast ship" speed="16.67" length="17.78" shape="314.53,122.28 309.21,139.25"/>
        <lane id=":cluster_243713055_4606931517_0_2" index="2" disallow="tram rail_urban rail rail_electric rail_fast ship" speed="16.67" length="17.78" shape="317.61,123.17 312.26,140.23"/>
    </edge>
    <edge id=":cluster_243713055_4606931517_3" function="internal">
        <lane id=":cluster_243713055_4606931517_3_0" index="0" allow="private emergency authority army vip passenger hov taxi bus coach delivery truck trailer motorcycle evehicle custom1 custom2" speed="13.89" length="31.09" shape="333.82,134.86 304.45,124.72"/>
        <lane id=":cluster_243713055_4606931517_3_1" index="1" allow="private emergency authority army vip passenger hov taxi bus coach delivery truck trailer motorcycle evehicle custom1 custom2" speed="13.89" length="31.09" shape="332.63,137.84 303.22,127.67"/>
    </edge>
    <edge id=":cluster_243713055_4606931517_5" function="internal">
        <lane id=":cluster_243713055_4606931517_5_0" index="0" allow="private emergency authority army vip passenger hov taxi bus coach delivery truck trailer motorcycle evehicle custom1 custom2" speed="10.01" length="23.92" shape="331.45,140.81 322.50,137.71 315.82,136.41 311.39,136.93 309.21,139.25"/>
        <lane id=":cluster_243713055_4606931517_5_1" index="1" allow="private emergency authority army vip passenger hov taxi bus coach delivery truck trailer motorcycle evehicle custom1 custom2" speed="9.37" length="20.83" shape="331.45,140.81 323.81,138.21 318.07,137.25 314.22,137.92 312.26,140.23"/>
    </edge>
    <edge id=":cluster_243713055_4606931517_7" function="internal">
        <lane id=":cluster_243713055_4606931517_7_0" index="0" disallow="tram rail_urban rail rail_electric rail_fast ship" speed="16.67" length="18.23" shape="324.43,144.15 329.68,126.63"/>
        <lane id=":cluster_243713055_4606931517_7_1" index="1" disallow="tram rail_urban rail rail_electric rail_fast ship" speed="16.67" length="18.23" shape="321.38,143.17 326.60,125.75"/>
    </edge>
    <edge id=":cluster_243713055_4606931517_9" function="internal">
        <lane id=":cluster_243713055_4606931517_9_0" index="0" allow="private emergency authority army vip passenger hov taxi bus coach delivery truck trailer motorcycle evehicle custom1 custom2" speed="10.92" length="10.01" shape="321.38,143.17 321.06,139.58 317.93,135.80 316.68,134.96"/>
    </edge>
    <edge id=":cluster_243713055_4606931517_10" function="internal">
        <lane id=":cluster_243713055_4606931517_10_0" index="0" disallow="tram rail_urban rail rail_electric rail_fast ship" speed="5.59" length="10.61" shape="321.38,143.17 320.20,139.01 318.29,137.14 315.64,137.54 314.91,138.13"/>
    </edge>
    <edge id=":cluster_243713055_4606931517_11" function="internal">
        <lane id=":cluster_243713055_4606931517_11_0" index="0" allow="private emergency authority army vip passenger hov taxi bus coach delivery truck trailer motorcycle evehicle custom1 custom2" speed="10.92" length="15.35" shape="316.68,134.96 311.98,131.83 303.22,127.67"/>
    </edge>
    <edge id=":cluster_243713055_4606931517_12" function="internal">
        <lane id=":cluster_243713055_4606931517_12_0" index="0" disallow="tram rail_urban rail rail_electric rail_fast ship" speed="5.59" length="3.38" shape="314.91,138.13 312.26,140.23"/>
    </edge>
    <edge id=":cluster_2524039513_4738747607_0" function="internal">
        <lane id=":cluster_2524039513_4738747607_0_0" index="0" disallow="tram rail_urban rail rail_electric rail_fast ship" speed="16.67" length="17.87" shape="279.87,219.61 278.44,224.71 277.78,228.29 277.18,231.89 275.90,237.03"/>
        <lane id=":cluster_2524039513_4738747607_0_1" index="1" disallow="tram rail_urban rail rail_electric rail_fast ship" speed="16.67" length="17.87" shape="282.91,220.61 281.48,225.70 280.83,229.28 280.23,232.86 278.95,238.00"/>
    </edge>
    <edge id=":cluster_2524039513_4738747607_2" function="internal">
        <lane id=":cluster_2524039513_4738747607_2_0" index="0" allow="private emergency authority army vip passenger hov taxi bus coach delivery truck trailer motorcycle evehicle custom1 custom2" speed="10.25" length="9.22" shape="285.95,221.61 285.94,225.76 288.72,229.56 289.02,229.75"/>
    </edge>
    <edge id=":cluster_2524039513_4738747607_3" function="internal">
        <lane id=":cluster_2524039513_4738747607_3_0" index="0" disallow="tram rail_urban rail rail_electric rail_fast ship" speed="5.23" length="8.60" shape="285.95,221.61 286.94,225.18 288.57,226.79 290.84,226.46 291.08,226.27"/>
    </edge>
    <edge id=":cluster_2524039513_4738747607_11" function="internal">
        <lane id=":cluster_2524039513_4738747607_11_0" index="0" allow="private emergency authority army vip passenger hov taxi bus coach delivery truck trailer motorcycle evehicle custom1 custom2" speed="10.25" length="15.08" shape="289.02,229.75 294.27,233.02 302.61,236.14"/>
    </edge>
    <edge id=":cluster_2524039513_4738747607_12" function="internal">
        <lane id=":cluster_2524039513_4738747607_12_0" index="0" disallow="tram rail_urban rail rail_electric rail_fast ship" speed="5.23" length="3.40" shape="291.08,226.27 293.75,224.18"/>
    </edge>
    <edge id=":cluster_2524039513_4738747607_4" function="internal">
        <lane id=":cluster_2524039513_4738747607_4_0" index="0" disallow="tram rail_urban rail rail_electric rail_fast ship" speed="16.67" length="17.62" shape="294.27,242.86 299.83,226.18"/>
        <lane id=":cluster_2524039513_4738747607_4_1" index="1" disallow="tram rail_urban rail rail_electric rail_fast ship" speed="16.67" length="17.62" shape="291.22,241.89 296.79,225.18"/>
        <lane id=":cluster_2524039513_4738747607_4_2" index="2" disallow="tram rail_urban rail rail_electric rail_fast ship" speed="16.67" length="17.62" shape="288.16,240.92 293.75,224.18"/>
    </edge>
    <edge id=":cluster_2524039513_4738747607_7" function="internal">
        <lane id=":cluster_2524039513_4738747607_7_0" index="0" allow="private emergency authority army vip passenger hov taxi bus coach delivery truck trailer motorcycle evehicle custom1 custom2" speed="13.89" length="32.96" shape="270.20,228.60 279.53,232.41 287.40,235.07 294.50,237.13 301.50,239.14"/>
        <lane id=":cluster_2524039513_4738747607_7_1" index="1" allow="private emergency authority army vip passenger hov taxi bus coach delivery truck trailer motorcycle evehicle custom1 custom2" speed="13.89" length="32.96" shape="271.50,225.67 280.80,229.47 288.61,232.10 295.64,234.14 302.61,236.14"/>
    </edge>
    <edge id=":cluster_2524039513_4738747607_9" function="internal">
        <lane id=":cluster_2524039513_4738747607_9_0" index="0" allow="private emergency authority army vip passenger hov taxi bus coach delivery truck trailer motorcycle evehicle custom1 custom2" speed="10.30" length="26.18" shape="272.80,222.75 281.45,226.27 288.67,228.25 293.95,228.09 296.79,225.18"/>
        <lane id=":cluster_2524039513_4738747607_9_1" index="1" allow="private emergency authority army vip passenger hov taxi bus coach delivery truck trailer motorcycle evehicle custom1 custom2" speed="9.69" length="23.04" shape="272.80,222.75 280.31,225.78 286.58,227.39 291.20,227.04 293.75,224.18"/>
    </edge>

    <edge id="161436156" from="2524039511" to="cluster_243713055_4606931517" name="Choa Chu Kang Drive" priority="11" type="highway.secondary" spreadType="center" shape="321.64,147.71 323.21,142.67 325.60,135.04">
        <lane id="161436156_0" index="0" disallow="tram rail_urban rail rail_electric rail_fast ship" speed="16.67" length="0.25" shape="324.36,144.37 324.43,144.15">
            <param key="origId" value="161436156"/>
        </lane>
        <lane id="161436156_1" index="1" disallow="tram rail_urban rail rail_electric rail_fast ship" speed="16.67" length="0.25" shape="321.30,143.42 321.38,143.17">
            <param key="origId" value="161436156"/>
        </lane>
        <param key="origTo" value="243713055"/>
    </edge>
    <edge id="161437373" from="1734061677" to="4606931515" priority="9" type="highway.motorway_link" spreadType="center" shape="235.18,209.55 247.08,222.40 252.13,228.24 255.74,233.74 258.97,238.97 260.44,242.09 263.39,251.21 264.53,261.44 263.29,286.29">
        <lane id="161437373_0" index="0" allow="private emergency authority army vip passenger hov taxi bus coach delivery truck trailer motorcycle evehicle custom1 custom2" speed="13.89" length="44.12" shape="246.99,222.30 247.08,222.40 252.13,228.24 255.74,233.74 258.97,238.97 260.44,242.09 263.39,251.21 264.53,261.44 264.52,261.65">
            <param key="origId" value="161437373"/>
        </lane>
    </edge>
    <edge id="161437374" from="1734061695" to="1734061685" priority="9" type="highway.motorway_link" spreadType="center" shape="281.67,277.45 288.95,268.80 293.30,263.79 297.73,259.31 301.22,255.97 308.08,253.23 315.57,250.29 324.53,248.89 347.28,250.14">