<?xml version="1.0" encoding="UTF-8"?>

<!-- generated on 2023-07-12 11:31:26 by Eclipse SUMO netconvert Version 1.17.0
<configuration xmlns:xsi="http://www.w3.org/2001/XMLSchema-instance" xsi:noNamespaceSchemaLocation="http://sumo.dlr.de/xsd/netconvertConfiguration.xsd">

    <input>
        <sumo-net-file value="osm.net.xml.gz"/>
    </input>

    <output>
        <output-file value="osm.net.xml"/>
        <output.street-names value="true"/>
    </output>

    <processing>
        <geometry.min-radius.fix.railways value="false"/>
        <geometry.max-grade.fix value="false"/>
        <offset.disable-normalization value="true"/>
        <lefthand value="1"/>
    </processing>

    <junctions>
        <no-turnarounds value="true"/>
        <junctions.corner-detail value="5"/>
        <junctions.limit-turn-speed value="5.50"/>
        <rectangular-lane-cut value="0"/>
    </junctions>

    <pedestrian>
        <walkingareas value="0"/>
    </pedestrian>

</configuration>
-->

<net version="1.16" junctionCornerDetail="5" lefthand="true" limitTurnSpeed="5.50" xmlns:xsi="http://www.w3.org/2001/XMLSchema-instance" xsi:noNamespaceSchemaLocation="http://sumo.dlr.de/xsd/net_file.xsd">

    <location netOffset="-356265.68,-145060.25" convBoundary="0.00,0.00,420.43,438.60" origBoundary="103.708069,1.312069,103.711847,1.316035" projParameter="+proj=utm +zone=48 +ellps=WGS84 +datum=WGS84 +units=m +no_defs"/>

    <type id="highway.bridleway" priority="1" numLanes="1" speed="2.78" allow="pedestrian" oneway="1" width="2.00"/>
    <type id="highway.bus_guideway" priority="1" numLanes="1" speed="27.78" allow="bus" oneway="1"/>
    <type id="highway.cycleway" priority="1" numLanes="1" speed="5.56" allow="bicycle" oneway="0" width="1.00"/>
    <type id="highway.footway" priority="1" numLanes="1" speed="2.78" allow="pedestrian" oneway="1" width="2.00"/>
    <type id="highway.ford" priority="1" numLanes="1" speed="2.78" allow="army" oneway="0"/>
    <type id="highway.living_street" priority="2" numLanes="1" speed="2.78" disallow="tram rail_urban rail rail_electric rail_fast ship" oneway="0"/>
    <type id="highway.motorway" priority="14" numLanes="2" speed="39.44" allow="private emergency authority army vip passenger hov taxi bus coach delivery truck trailer motorcycle evehicle custom1 custom2" oneway="1"/>
    <type id="highway.motorway_link" priority="9" numLanes="1" speed="22.22" allow="private emergency authority army vip passenger hov taxi bus coach delivery truck trailer motorcycle evehicle custom1 custom2" oneway="1"/>
    <type id="highway.path" priority="1" numLanes="1" speed="5.56" allow="pedestrian bicycle" oneway="0" width="2.00"/>
    <type id="highway.pedestrian" priority="1" numLanes="1" speed="2.78" allow="pedestrian" oneway="1" width="2.00"/>
    <type id="highway.primary" priority="12" numLanes="2" speed="27.78" disallow="tram rail_urban rail rail_electric rail_fast ship" oneway="0"/>
    <type id="highway.primary_link" priority="7" numLanes="1" speed="22.22" disallow="tram rail_urban rail rail_electric rail_fast ship" oneway="0"/>
    <type id="highway.raceway" priority="15" numLanes="2" speed="83.33" allow="vip" oneway="0"/>
    <type id="highway.residential" priority="3" numLanes="1" speed="13.89" disallow="tram rail_urban rail rail_electric rail_fast ship" oneway="0"/>
    <type id="highway.secondary" priority="11" numLanes="1" speed="27.78" disallow="tram rail_urban rail rail_electric rail_fast ship" oneway="0"/>
    <type id="highway.secondary_link" priority="6" numLanes="1" speed="22.22" disallow="tram rail_urban rail rail_electric rail_fast ship" oneway="0"/>
    <type id="highway.service" priority="1" numLanes="1" speed="5.56" allow="pedestrian delivery bicycle" oneway="0"/>
    <type id="highway.stairs" priority="1" numLanes="1" speed="1.39" allow="pedestrian" oneway="1" width="2.00"/>
    <type id="highway.step" priority="1" numLanes="1" speed="1.39" allow="pedestrian" oneway="1" width="2.00"/>
    <type id="highway.steps" priority="1" numLanes="1" speed="1.39" allow="pedestrian" oneway="1" width="2.00"/>
    <type id="highway.tertiary" priority="10" numLanes="1" speed="22.22" disallow="tram rail_urban rail rail_electric rail_fast ship" oneway="0"/>
    <type id="highway.tertiary_link" priority="5" numLanes="1" speed="22.22" disallow="tram rail_urban rail rail_electric rail_fast ship" oneway="0"/>
    <type id="highway.track" priority="1" numLanes="1" speed="5.56" allow="pedestrian motorcycle moped bicycle" oneway="0"/>
    <type id="highway.trunk" priority="13" numLanes="2" speed="27.78" disallow="pedestrian bicycle tram rail_urban rail rail_electric rail_fast ship" oneway="0"/>
    <type id="highway.trunk_link" priority="8" numLanes="1" speed="22.22" disallow="pedestrian bicycle tram rail_urban rail rail_electric rail_fast ship" oneway="0"/>
    <type id="highway.unclassified" priority="4" numLanes="1" speed="13.89" disallow="tram rail_urban rail rail_electric rail_fast ship" oneway="0"/>
    <type id="highway.unsurfaced" priority="1" numLanes="1" speed="8.33" disallow="tram rail_urban rail rail_electric rail_fast ship" oneway="0"/>
    <type id="railway.highspeed" priority="21" numLanes="1" speed="69.44" allow="rail_fast" oneway="1"/>
    <type id="railway.light_rail" priority="19" numLanes="1" speed="27.78" allow="rail_urban" oneway="1"/>
    <type id="railway.preserved" priority="16" numLanes="1" speed="27.78" allow="rail" oneway="1"/>
    <type id="railway.rail" priority="20" numLanes="1" speed="44.44" allow="rail" oneway="1"/>
    <type id="railway.subway" priority="18" numLanes="1" speed="27.78" allow="rail_urban" oneway="1"/>
    <type id="railway.tram" priority="17" numLanes="1" speed="13.89" allow="tram" oneway="1"/>

    <edge id=":1345945829_0" function="internal">
        <lane id=":1345945829_0_0" index="0" disallow="pedestrian bicycle tram rail_urban rail rail_electric rail_fast ship" speed="13.89" length="19.17" shape="149.59,213.22 148.65,218.99 148.36,223.00 148.61,227.02 149.26,232.85"/>
        <lane id=":1345945829_0_1" index="1" disallow="pedestrian bicycle tram rail_urban rail rail_electric rail_fast ship" speed="13.89" length="19.17" shape="152.74,213.79 151.69,219.21 151.15,223.00 151.31,226.77 152.40,232.12"/>
    </edge>
    <edge id=":1345945829_2" function="internal">
        <lane id=":1345945829_2_0" index="0" disallow="tram rail_urban rail rail_electric rail_fast ship" speed="19.44" length="16.69" shape="160.07,222.46 155.25,220.56 151.90,219.36 148.45,218.54 143.34,217.76"/>
        <lane id=":1345945829_2_1" index="1" disallow="tram rail_urban rail rail_electric rail_fast ship" speed="19.44" length="16.69" shape="158.91,225.44 154.30,223.62 151.10,222.47 147.80,221.68 142.91,220.94"/>
        <lane id=":1345945829_2_2" index="2" disallow="tram rail_urban rail rail_electric rail_fast ship" speed="19.44" length="16.69" shape="157.75,228.43 153.35,226.69 150.29,225.58 147.15,224.82 142.49,224.11"/>
    </edge>
    <edge id=":1345945829_5" function="internal">
        <lane id=":1345945829_5_0" index="0" disallow="pedestrian bicycle tram rail_urban rail rail_electric rail_fast ship" speed="5.56" length="9.25" shape="157.75,228.43 154.83,227.65 152.96,228.01 152.15,229.50 152.40,232.12"/>
    </edge>
    <edge id=":1345945835_0" function="internal">
        <lane id=":1345945835_0_0" index="0" disallow="pedestrian bicycle tram rail_urban rail rail_electric rail_fast ship" speed="14.02" length="3.68" shape="180.07,160.28 179.88,161.36 179.68,162.08 179.37,162.76 178.83,163.71"/>
        <lane id=":1345945835_0_1" index="1" disallow="pedestrian bicycle tram rail_urban rail rail_electric rail_fast ship" speed="16.42" length="5.08" shape="183.23,160.79 182.97,162.27 182.68,163.26 182.23,164.20 181.48,165.51"/>
    </edge>
    <edge id=":1345945835_2" function="internal">
        <lane id=":1345945835_2_0" index="0" disallow="tram rail_urban rail rail_electric rail_fast ship" speed="19.44" length="7.33" shape="186.39,161.30 185.98,163.68 185.72,165.32 185.60,166.97 185.63,169.39"/>
        <lane id=":1345945835_2_1" index="1" disallow="tram rail_urban rail rail_electric rail_fast ship" speed="19.44" length="7.33" shape="189.55,161.80 189.17,163.95 188.92,165.42 188.80,166.91 188.82,169.08"/>
        <lane id=":1345945835_2_2" index="2" disallow="tram rail_urban rail rail_electric rail_fast ship" speed="19.44" length="7.33" shape="192.71,162.31 192.37,164.22 192.13,165.52 192.00,166.84 192.01,168.77"/>
    </edge>
    <edge id=":1345945844_0" function="internal">
        <lane id=":1345945844_0_0" index="0" disallow="pedestrian bicycle tram rail_urban rail rail_electric rail_fast ship" speed="13.89" length="14.19" shape="170.55,176.27 168.42,179.68 167.44,182.36 166.34,184.93 163.85,188.03"/>
        <lane id=":1345945844_0_1" index="1" disallow="pedestrian bicycle tram rail_urban rail rail_electric rail_fast ship" speed="13.89" length="14.19" shape="173.50,177.69 171.17,181.37 170.06,184.23 168.82,186.97 166.10,190.30"/>
    </edge>
    <edge id=":1345945844_2" function="internal">
        <lane id=":1345945844_2_0" index="0" disallow="pedestrian bicycle tram rail_urban rail rail_electric rail_fast ship" speed="13.89" length="14.26" shape="176.15,180.21 172.30,182.26 169.58,183.57 167.07,185.16 163.85,188.03"/>
        <lane id=":1345945844_2_1" index="1" disallow="pedestrian bicycle tram rail_urban rail rail_electric rail_fast ship" speed="13.89" length="14.26" shape="177.76,182.98 174.12,184.90 171.54,186.12 169.15,187.60 166.10,190.30"/>
    </edge>
    <edge id=":1345945845_0" function="internal">
        <lane id=":1345945845_0_0" index="0" disallow="pedestrian bicycle tram rail_urban rail rail_electric rail_fast ship" speed="16.66" length="13.72" shape="212.82,291.04 212.59,287.08 211.52,284.36 210.60,281.68 210.83,277.80"/>
        <lane id=":1345945845_0_1" index="1" disallow="pedestrian bicycle tram rail_urban rail rail_electric rail_fast ship" speed="16.66" length="13.72" shape="209.64,290.71 209.41,286.68 208.34,283.92 207.43,281.18 207.68,277.23"/>
    </edge>
    <edge id=":1345945845_2" function="internal">
        <lane id=":1345945845_2_0" index="0" disallow="tram rail_urban rail rail_electric rail_fast ship" speed="19.44" length="13.38" shape="206.45,290.37 206.59,286.47 206.10,283.82 205.11,281.21 203.79,277.44"/>
        <lane id=":1345945845_2_1" index="1" disallow="tram rail_urban rail rail_electric rail_fast ship" speed="19.44" length="12.11" shape="203.27,290.04 203.38,286.52 202.88,284.12 201.95,281.77 200.73,278.37"/>
        <lane id=":1345945845_2_2" index="2" disallow="tram rail_urban rail rail_electric rail_fast ship" speed="19.44" length="10.85" shape="200.09,289.71 200.16,286.56 199.67,284.43 198.78,282.34 197.67,279.30"/>
    </edge>
    <edge id=":1345945856_0" function="internal">
        <lane id=":1345945856_0_0" index="0" disallow="pedestrian bicycle tram rail_urban rail rail_electric rail_fast ship" speed="13.89" length="0.20" shape="238.14,187.47 238.10,187.43 238.07,187.40 238.04,187.37 238.01,187.32"/>
    </edge>
    <edge id=":1345945862_0" function="internal">
        <lane id=":1345945862_0_0" index="0" disallow="pedestrian bicycle tram rail_urban rail rail_electric rail_fast ship" speed="13.89" length="18.19" shape="161.54,190.32 157.26,194.48 153.82,197.62 150.80,200.07 147.79,202.17"/>
    </edge>
    <edge id=":1345945862_1" function="internal">
        <lane id=":1345945862_1_0" index="0" disallow="pedestrian bicycle tram rail_urban rail rail_electric rail_fast ship" speed="13.89" length="18.00" shape="161.54,190.32 157.85,194.30 155.74,197.39 154.01,200.76 151.45,205.61"/>
        <lane id=":1345945862_1_1" index="1" disallow="pedestrian bicycle tram rail_urban rail rail_electric rail_fast ship" speed="13.89" length="18.00" shape="163.79,192.59 160.29,196.39 158.30,199.34 156.67,202.56 154.23,207.18"/>
    </edge>
    <edge id=":1345945870_0" function="internal">
        <lane id=":1345945870_0_0" index="0" disallow="pedestrian bicycle tram rail_urban rail rail_electric rail_fast ship" speed="13.89" length="18.51" shape="200.46,177.42 194.83,177.00 190.94,176.92 187.11,177.39 181.62,178.63"/>
        <lane id=":1345945870_0_1" index="1" disallow="pedestrian bicycle tram rail_urban rail rail_electric rail_fast ship" speed="13.89" length="18.51" shape="200.23,180.61 194.90,180.21 191.22,180.13 187.59,180.56 182.40,181.74"/>
    </edge>
    <edge id=":1345945870_2" function="internal">
        <lane id=":1345945870_2_0" index="0" disallow="pedestrian bicycle tram rail_urban rail rail_electric rail_fast ship" speed="6.49" length="12.27" shape="200.23,180.61 196.16,180.75 193.69,181.89 192.83,184.00 193.58,187.11"/>
        <lane id=":1345945870_2_1" index="1" disallow="pedestrian bicycle tram rail_urban rail rail_electric rail_fast ship" speed="5.54" length="8.56" shape="200.23,180.61 197.69,180.77 196.22,181.70 195.83,183.39 196.52,185.84"/>
    </edge>
    <edge id=":1345945870_4" function="internal">
        <lane id=":1345945870_4_0" index="0" disallow="tram rail_urban rail rail_electric rail_fast ship" speed="19.44" length="15.76" shape="185.83,172.52 186.55,177.40 187.38,180.68 188.65,183.85 190.64,188.38"/>
        <lane id=":1345945870_4_1" index="1" disallow="tram rail_urban rail rail_electric rail_fast ship" speed="19.44" length="15.76" shape="189.01,172.13 189.69,176.74 190.49,179.84 191.69,182.83 193.58,187.11"/>
        <lane id=":1345945870_4_2" index="2" disallow="tram rail_urban rail rail_electric rail_fast ship" speed="19.44" length="15.76" shape="192.18,171.74 192.83,176.08 193.59,178.99 194.73,181.81 196.52,185.84"/>
    </edge>
    <edge id=":1345945885_0" function="internal">
        <lane id=":1345945885_0_0" index="0" disallow="pedestrian bicycle tram rail_urban rail rail_electric rail_fast ship" speed="13.89" length="10.77" shape="229.69,252.62 232.22,250.78 234.24,249.98 236.45,249.52 239.56,248.71"/>
        <lane id=":1345945885_0_1" index="1" disallow="pedestrian bicycle tram rail_urban rail rail_electric rail_fast ship" speed="13.89" length="11.46" shape="229.69,252.62 232.13,250.23 233.73,248.41 235.53,246.96 238.58,245.66"/>
    </edge>
    <edge id=":1345945885_2" function="internal">
        <lane id=":1345945885_2_0" index="0" disallow="pedestrian bicycle tram rail_urban rail rail_electric rail_fast ship" speed="13.89" length="11.44" shape="229.69,252.62 232.24,250.18 233.63,248.18 234.59,245.86 235.86,242.50"/>
        <lane id=":1345945885_2_1" index="1" disallow="pedestrian bicycle tram rail_urban rail rail_electric rail_fast ship" speed="13.89" length="11.44" shape="227.61,250.19 229.87,247.99 231.07,246.16 231.89,244.06 233.01,241.04"/>
    </edge>
    <edge id=":1345945889_0" function="internal">
        <lane id=":1345945889_0_0" index="0" disallow="tram rail_urban rail rail_electric rail_fast ship" speed="19.44" length="17.31" shape="202.47,273.06 196.93,256.49"/>
        <lane id=":1345945889_0_1" index="1" disallow="tram rail_urban rail rail_electric rail_fast ship" speed="19.44" length="17.31" shape="199.40,273.98 193.92,257.57"/>
        <lane id=":1345945889_0_2" index="2" disallow="tram rail_urban rail rail_electric rail_fast ship" speed="19.44" length="17.31" shape="196.34,274.91 190.91,258.65"/>
    </edge>
    <edge id=":1345945889_3" function="internal">
        <lane id=":1345945889_3_0" index="0" disallow="pedestrian bicycle tram rail_urban rail rail_electric rail_fast ship" speed="13.89" length="19.55" shape="186.38,267.42 192.34,267.88 196.47,267.97 200.56,267.52 206.42,266.38"/>
        <lane id=":1345945889_3_1" index="1" disallow="pedestrian bicycle tram rail_urban rail rail_electric rail_fast ship" speed="13.89" length="19.55" shape="186.64,264.23 192.22,264.68 196.08,264.78 199.90,264.38 205.39,263.32"/>
    </edge>
    <edge id=":1345945889_5" function="internal">
        <lane id=":1345945889_5_0" index="0" disallow="pedestrian bicycle tram rail_urban rail rail_electric rail_fast ship" speed="6.69" length="12.72" shape="186.64,264.23 190.83,264.11 193.44,262.96 194.47,260.78 193.92,257.57"/>
        <lane id=":1345945889_5_1" index="1" disallow="pedestrian bicycle tram rail_urban rail rail_electric rail_fast ship" speed="5.78" length="9.15" shape="186.64,264.23 189.33,264.07 190.93,263.09 191.46,261.28 190.91,258.65"/>
    </edge>
    <edge id=":1345945907_0" function="internal">
        <lane id=":1345945907_0_0" index="0" disallow="pedestrian bicycle tram rail_urban rail rail_electric rail_fast ship" speed="16.66" length="12.59" shape="144.84,238.97 148.03,240.54 150.34,241.52 152.35,242.84 154.60,245.44"/>
        <lane id=":1345945907_0_1" index="1" disallow="pedestrian bicycle tram rail_urban rail rail_electric rail_fast ship" speed="16.66" length="12.59" shape="146.43,236.20 149.97,237.97 152.51,239.12 154.70,240.64 157.20,243.57"/>
    </edge>
    <edge id=":1345945907_2" function="internal">
        <lane id=":1345945907_2_0" index="0" disallow="pedestrian bicycle tram rail_urban rail rail_electric rail_fast ship" speed="13.89" length="12.68" shape="149.51,233.59 150.72,237.26 151.49,239.82 152.53,242.23 154.60,245.44"/>
        <lane id=":1345945907_2_1" index="1" disallow="pedestrian bicycle tram rail_urban rail rail_electric rail_fast ship" speed="13.89" length="12.68" shape="152.44,232.31 153.29,235.88 154.02,238.31 155.15,240.56 157.20,243.57"/>
    </edge>
    <edge id=":2467357276_0" function="internal">
        <lane id=":2467357276_0_0" index="0" disallow="tram rail_urban rail rail_electric rail_fast ship" speed="16.03" length="12.68" shape="157.58,258.26 159.90,260.56 161.73,262.56 163.18,265.01 164.34,268.69"/>
    </edge>
    <edge id=":2467357276_1" function="internal">
        <lane id=":2467357276_1_0" index="0" disallow="pedestrian bicycle tram rail_urban rail rail_electric rail_fast ship" speed="16.66" length="10.07" shape="162.14,259.57 163.55,262.17 165.03,263.70 166.40,265.27 167.45,267.97"/>
    </edge>
    <edge id=":249395224_0" function="internal">
        <lane id=":249395224_0_0" index="0" disallow="pedestrian bicycle tram rail_urban rail rail_electric rail_fast ship" speed="13.89" length="18.73" shape="212.09,272.32 213.75,267.19 215.91,264.09 218.97,261.54 223.36,258.06"/>
        <lane id=":249395224_0_1" index="1" disallow="pedestrian bicycle tram rail_urban rail rail_electric rail_fast ship" speed="13.89" length="18.73" shape="209.54,269.94 212.18,265.08 214.37,261.96 217.08,259.25 221.27,255.63"/>
    </edge>
    <edge id=":249395224_2" function="internal">
        <lane id=":249395224_2_0" index="0" disallow="pedestrian bicycle tram rail_urban rail rail_electric rail_fast ship" speed="13.89" length="18.33" shape="206.77,266.30 212.20,265.06 215.83,263.73 219.07,261.62 223.36,258.06"/>
        <lane id=":249395224_2_1" index="1" disallow="pedestrian bicycle tram rail_urban rail rail_electric rail_fast ship" speed="13.89" length="18.33" shape="205.59,263.28 210.71,262.13 214.15,260.92 217.23,258.97 221.27,255.63"/>
    </edge>
    <edge id=":249395388_0" function="internal">
        <lane id=":249395388_0_0" index="0" disallow="pedestrian bicycle tram rail_urban rail rail_electric rail_fast ship" speed="16.66" length="20.07" shape="249.02,209.24 244.00,206.25 240.25,204.57 236.86,202.50 232.90,198.39"/>
        <lane id=":249395388_0_1" index="1" disallow="pedestrian bicycle tram rail_urban rail rail_electric rail_fast ship" speed="16.66" length="20.07" shape="247.18,211.86 241.93,208.70 238.01,206.86 234.48,204.65 230.40,200.39"/>
    </edge>
    <edge id=":249395388_2" function="internal">
        <lane id=":249395388_2_0" index="0" disallow="pedestrian bicycle tram rail_urban rail rail_electric rail_fast ship" speed="13.89" length="20.12" shape="240.22,217.59 239.24,211.53 238.27,207.22 236.44,203.30 232.90,198.39"/>
        <lane id=":249395388_2_1" index="1" disallow="pedestrian bicycle tram rail_urban rail rail_electric rail_fast ship" speed="13.89" length="20.12" shape="237.07,218.12 236.18,212.45 235.35,208.53 233.71,204.97 230.40,200.39"/>
    </edge>
    <edge id=":249395409_0" function="internal">
        <lane id=":249395409_0_0" index="0" disallow="pedestrian bicycle tram rail_urban rail rail_electric rail_fast ship" speed="13.89" length="10.45" shape="223.78,186.95 221.92,184.46 220.84,182.59 220.07,180.58 219.12,177.70"/>
    </edge>
    <edge id=":249395409_1" function="internal">
        <lane id=":249395409_1_0" index="0" disallow="pedestrian bicycle tram rail_urban rail rail_electric rail_fast ship" speed="13.89" length="10.36" shape="223.78,186.95 221.58,184.69 219.67,183.59 217.53,182.76 214.64,181.27"/>
        <lane id=":249395409_1_1" index="1" disallow="pedestrian bicycle tram rail_urban rail rail_electric rail_fast ship" speed="13.89" length="10.36" shape="221.28,188.95 219.29,186.93 217.54,186.00 215.58,185.31 212.96,184.00"/>
    </edge>
    <edge id=":4086673175_0" function="internal">
        <lane id=":4086673175_0_0" index="0" disallow="pedestrian bicycle tram rail_urban rail rail_electric rail_fast ship" speed="13.89" length="18.80" shape="238.24,236.65 240.28,231.31 241.18,227.43 241.12,223.44 240.26,217.78"/>
        <lane id=":4086673175_0_1" index="1" disallow="pedestrian bicycle tram rail_urban rail rail_electric rail_fast ship" speed="13.89" length="18.80" shape="235.06,235.98 237.00,230.97 237.89,227.34 237.88,223.61 237.10,218.32"/>
    </edge>
    <edge id=":4086673175_2" function="internal">
        <lane id=":4086673175_2_0" index="0" disallow="pedestrian bicycle tram rail_urban rail rail_electric rail_fast ship" speed="19.44" length="16.22" shape="229.62,227.22 234.02,229.28 237.13,230.47 240.34,231.37 245.06,232.55"/>
        <lane id=":4086673175_2_1" index="1" disallow="pedestrian bicycle tram rail_urban rail rail_electric rail_fast ship" speed="19.44" length="16.22" shape="230.58,224.13 234.93,226.17 238.00,227.37 241.18,228.28 245.85,229.45"/>
        <lane id=":4086673175_2_2" index="2" disallow="pedestrian bicycle tram rail_urban rail rail_electric rail_fast ship" speed="19.44" length="16.22" shape="231.54,221.04 235.85,223.07 238.88,224.27 242.02,225.18 246.64,226.35"/>
    </edge>
    <edge id=":4086673175_5" function="internal">
        <lane id=":4086673175_5_0" index="0" disallow="pedestrian bicycle tram rail_urban rail rail_electric rail_fast ship" speed="5.43" length="8.80" shape="231.54,221.04 234.35,222.07 236.22,221.96 237.13,220.70 237.10,218.32"/>
    </edge>
    <edge id=":4760361799_0" function="internal">
        <lane id=":4760361799_0_0" index="0" disallow="pedestrian bicycle tram rail_urban rail rail_electric rail_fast ship" speed="13.89" length="12.11" shape="156.83,248.54 158.89,251.64 160.12,254.04 161.01,256.40 162.07,259.38"/>
    </edge>
    <edge id=":4760361799_1" function="internal">
        <lane id=":4760361799_1_0" index="0" disallow="pedestrian bicycle tram rail_urban rail rail_electric rail_fast ship" speed="13.89" length="15.66" shape="156.83,248.54 159.60,252.26 161.72,254.64 164.14,256.72 167.81,259.56"/>
        <lane id=":4760361799_1_1" index="1" disallow="pedestrian bicycle tram rail_urban rail rail_electric rail_fast ship" speed="13.89" length="15.66" shape="159.43,246.67 162.21,250.37 164.36,252.72 166.82,254.77 170.51,257.60"/>
    </edge>

    <edge id="119889068" from="1345539658" to="1345539657" name="Jurong Pier Road" priority="12" type="highway.primary" spreadType="center" shape="186.10,438.60 183.77,388.19 185.81,325.48 193.36,277.87 208.79,177.93 221.58,81.07 223.95,46.12 226.54,12.19">
        <lane id="119889068_0" index="0" disallow="tram rail_urban rail rail_electric rail_fast ship" speed="19.44" length="429.30" shape="187.70,438.53 185.37,388.18 187.41,325.63 194.94,278.12 210.37,178.16 223.17,81.23 225.55,46.24 228.14,12.31">
            <param key="origId" value="119889068"/>
        </lane>
        <lane id="119889068_1" index="1" disallow="tram rail_urban rail rail_electric rail_fast ship" speed="19.44" length="429.30" shape="184.50,438.67 182.17,388.20 184.21,325.33 191.78,277.62 207.21,177.70 219.99,80.91 222.35,46.00 224.94,12.07">
            <param key="origId" value="119889068"/>
        </lane>
    </edge>
    <edge id="119889070" from="1345539659" to="1345539660" name="Jurong Pier Road" priority="12" type="highway.primary" spreadType="center" shape="216.76,11.75 202.64,137.91 181.23,276.39 174.35,323.99 172.77,386.50 175.05,438.09">
        <lane id="119889070_0" index="0" disallow="tram rail_urban rail rail_electric rail_fast ship" speed="19.44" length="429.34" shape="215.17,11.57 201.05,137.70 179.65,276.15 172.75,323.85 171.17,386.52 173.45,438.16">
            <param key="origId" value="119889070"/>
        </lane>
        <lane id="119889070_1" index="1" disallow="tram rail_urban rail rail_electric rail_fast ship" speed="19.44" length="429.34" shape="218.35,11.93 204.23,138.12 182.81,276.63 175.95,324.13 174.37,386.48 176.65,438.02">
            <param key="origId" value="119889070"/>
        </lane>
    </edge>
    <edge id="119933239" from="1345945835" to="1345945870" name="Jurong Pier Road" priority="12" type="highway.primary" spreadType="center" shape="187.76,152.75 188.57,161.10 188.88,171.09 189.76,178.26">
        <lane id="119933239_0" index="0" disallow="tram rail_urban rail rail_electric rail_fast ship" speed="19.44" length="3.06" shape="185.63,169.39 185.69,171.34 185.83,172.52">
            <param key="origId" value="119933239"/>
        </lane>
        <lane id="119933239_1" index="1" disallow="tram rail_urban rail rail_electric rail_fast ship" speed="19.44" length="3.06" shape="188.82,169.08 188.88,171.09 189.01,172.13">
            <param key="origId" value="119933239"/>
        </lane>
        <lane id="119933239_2" index="2" disallow="tram rail_urban rail rail_electric rail_fast ship" speed="19.44" length="3.06" shape="192.01,168.77 192.07,170.84 192.18,171.74">
            <param key="origId" value="119933239"/>
        </lane>
    </edge>
    <edge id="119933240" from="1345945856" to="5179075427" priority="8" type="highway.trunk_link" spreadType="center" shape="238.07,187.40 233.85,182.24 228.86,172.07 226.22,159.82 226.22,147.56 235.20,57.44">
        <lane id="119933240_0" index="0" disallow="pedestrian bicycle tram rail_urban rail rail_electric rail_fast ship" speed="13.89" length="133.25" shape="238.01,187.32 233.85,182.24 228.86,172.07 226.22,159.82 226.22,147.56 235.20,57.44">
            <param key="origId" value="119933240"/>
        </lane>
    </edge>
    <edge id="119933246" from="1345945835" to="1345945844" priority="8" type="highway.trunk_link" spreadType="center" shape="187.76,152.75 182.75,160.14 175.67,172.33 170.89,178.43 166.44,187.72">
        <lane id="119933246_0" index="0" disallow="pedestrian bicycle tram rail_urban rail rail_electric rail_fast ship" speed="13.89" length="14.84" shape="178.83,163.71 174.34,171.43 170.55,176.27">
            <param key="origId" value="119933246"/>
        </lane>
        <lane id="119933246_1" index="1" disallow="pedestrian bicycle tram rail_urban rail rail_electric rail_fast ship" speed="13.89" length="14.84" shape="181.48,165.51 177.00,173.23 173.50,177.69">
            <param key="origId" value="119933246"/>
        </lane>
    </edge>
    <edge id="119933247" from="249395409" to="1345945901" name="Jurong Pier Road" priority="12" type="highway.primary" spreadType="center" shape="222.62,188.06 218.26,175.16 216.63,167.66 216.94,160.82 228.72,76.74 231.97,44.80 237.42,0.00">
        <lane id="119933247_0" index="0" disallow="tram rail_urban rail rail_electric rail_fast ship" speed="13.89" length="179.34" shape="219.12,177.70 218.26,175.16 216.63,167.66 216.94,160.82 228.72,76.74 231.97,44.80 237.42,-0.00">
            <param key="origId" value="119933247"/>
        </lane>
    </edge>
    <edge id="119933249" from="1345945829" to="1345945838" name="Jalan Buroh" priority="12" type="highway.primary" spreadType="center" shape="149.65,221.84 142.27,220.85 0.00,218.00">
        <lane id="119933249_0" index="0" disallow="tram rail_urban rail rail_electric rail_fast ship" speed="19.44" length="99.36" shape="143.34,217.76 142.52,217.65 43.65,215.67">
            <param key="origId" value="119933249"/>
        </lane>
        <lane id="119933249_1" index="1" disallow="tram rail_urban rail rail_electric rail_fast ship" speed="19.44" length="99.36" shape="142.91,220.94 142.27,220.85 43.58,218.87">
            <param key="origId" value="119933249"/>
        </lane>
        <lane id="119933249_2" index="2" disallow="tram rail_urban rail rail_electric rail_fast ship" speed="19.44" length="99.36" shape="142.49,224.11 142.02,224.05 43.52,222.07">
            <param key="origId" value="119933249"/>
        </lane>
    </edge>
    <edge id="119933253" from="249395409" to="1345945870" name="Jurong Pier Circus" priority="13" type="highway.trunk" spreadType="center" shape="222.62,188.06 212.67,181.94 201.29,179.08 189.76,178.26">
        <lane id="119933253_0" index="0" disallow="pedestrian bicycle tram rail_urban rail rail_electric rail_fast ship" speed="13.89" length="14.01" shape="214.64,181.27 213.30,180.45 201.54,177.49 200.46,177.42">
            <param key="origId" value="119933253"/>
        </lane>
        <lane id="119933253_1" index="1" disallow="pedestrian bicycle tram rail_urban rail rail_electric rail_fast ship" speed="13.89" length="14.01" shape="212.96,184.00 212.04,183.43 201.04,180.67 200.23,180.61">
            <param key="origId" value="119933253"/>
        </lane>
    </edge>