<?xml version="1.0" encoding="UTF-8"?>

<!-- generated on 2023-07-17 15:18:20 by Eclipse SUMO netconvert Version 1.17.0
<configuration xmlns:xsi="http://www.w3.org/2001/XMLSchema-instance" xsi:noNamespaceSchemaLocation="http://sumo.dlr.de/xsd/netconvertConfiguration.xsd">

    <input>
        <sumo-net-file value="osm.net.xml.gz"/>
    </input>

    <output>
        <output-file value="osm.net.xml"/>
        <output.street-names value="true"/>
    </output>

    <processing>
        <geometry.min-radius.fix.railways value="false"/>
        <geometry.max-grade.fix value="false"/>
        <offset.disable-normalization value="true"/>
        <lefthand value="1"/>
    </processing>

    <junctions>
        <no-turnarounds value="true"/>
        <junctions.corner-detail value="5"/>
        <junctions.limit-turn-speed value="5.50"/>
        <rectangular-lane-cut value="0"/>
    </junctions>

    <pedestrian>
        <walkingareas value="0"/>
    </pedestrian>

</configuration>
-->

<net version="1.16" junctionCornerDetail="5" lefthand="true" limitTurnSpeed="5.50" xmlns:xsi="http://www.w3.org/2001/XMLSchema-instance" xsi:noNamespaceSchemaLocation="http://sumo.dlr.de/xsd/net_file.xsd">

    <location netOffset="-363091.60,-145637.37" convBoundary="0.00,0.00,492.68,454.77" origBoundary="103.769409,1.317321,103.773837,1.321433" projParameter="+proj=utm +zone=48 +ellps=WGS84 +datum=WGS84 +units=m +no_defs"/>

    <type id="highway.bridleway" priority="1" numLanes="1" speed="2.78" allow="pedestrian" oneway="1" width="2.00"/>
    <type id="highway.bus_guideway" priority="1" numLanes="1" speed="27.78" allow="bus" oneway="1"/>
    <type id="highway.cycleway" priority="1" numLanes="1" speed="5.56" allow="bicycle" oneway="0" width="1.00"/>
    <type id="highway.footway" priority="1" numLanes="1" speed="2.78" allow="pedestrian" oneway="1" width="2.00"/>
    <type id="highway.ford" priority="1" numLanes="1" speed="2.78" allow="army" oneway="0"/>
    <type id="highway.living_street" priority="2" numLanes="1" speed="2.78" disallow="tram rail_urban rail rail_electric rail_fast ship" oneway="0"/>
    <type id="highway.motorway" priority="14" numLanes="2" speed="39.44" allow="private emergency authority army vip passenger hov taxi bus coach delivery truck trailer motorcycle evehicle custom1 custom2" oneway="1"/>
    <type id="highway.motorway_link" priority="9" numLanes="1" speed="22.22" allow="private emergency authority army vip passenger hov taxi bus coach delivery truck trailer motorcycle evehicle custom1 custom2" oneway="1"/>
    <type id="highway.path" priority="1" numLanes="1" speed="5.56" allow="pedestrian bicycle" oneway="0" width="2.00"/>
    <type id="highway.pedestrian" priority="1" numLanes="1" speed="2.78" allow="pedestrian" oneway="1" width="2.00"/>
    <type id="highway.primary" priority="12" numLanes="2" speed="27.78" disallow="tram rail_urban rail rail_electric rail_fast ship" oneway="0"/>
    <type id="highway.primary_link" priority="7" numLanes="1" speed="22.22" disallow="tram rail_urban rail rail_electric rail_fast ship" oneway="0"/>
    <type id="highway.raceway" priority="15" numLanes="2" speed="83.33" allow="vip" oneway="0"/>
    <type id="highway.residential" priority="3" numLanes="1" speed="13.89" disallow="tram rail_urban rail rail_electric rail_fast ship" oneway="0"/>
    <type id="highway.secondary" priority="11" numLanes="1" speed="27.78" disallow="tram rail_urban rail rail_electric rail_fast ship" oneway="0"/>
    <type id="highway.secondary_link" priority="6" numLanes="1" speed="22.22" disallow="tram rail_urban rail rail_electric rail_fast ship" oneway="0"/>
    <type id="highway.service" priority="1" numLanes="1" speed="5.56" allow="pedestrian delivery bicycle" oneway="0"/>
    <type id="highway.stairs" priority="1" numLanes="1" speed="1.39" allow="pedestrian" oneway="1" width="2.00"/>
    <type id="highway.step" priority="1" numLanes="1" speed="1.39" allow="pedestrian" oneway="1" width="2.00"/>
    <type id="highway.steps" priority="1" numLanes="1" speed="1.39" allow="pedestrian" oneway="1" width="2.00"/>
    <type id="highway.tertiary" priority="10" numLanes="1" speed="22.22" disallow="tram rail_urban rail rail_electric rail_fast ship" oneway="0"/>
    <type id="highway.tertiary_link" priority="5" numLanes="1" speed="22.22" disallow="tram rail_urban rail rail_electric rail_fast ship" oneway="0"/>
    <type id="highway.track" priority="1" numLanes="1" speed="5.56" allow="pedestrian motorcycle moped bicycle" oneway="0"/>
    <type id="highway.trunk" priority="13" numLanes="2" speed="27.78" disallow="pedestrian bicycle tram rail_urban rail rail_electric rail_fast ship" oneway="0"/>
    <type id="highway.trunk_link" priority="8" numLanes="1" speed="22.22" disallow="pedestrian bicycle tram rail_urban rail rail_electric rail_fast ship" oneway="0"/>
    <type id="highway.unclassified" priority="4" numLanes="1" speed="13.89" disallow="tram rail_urban rail rail_electric rail_fast ship" oneway="0"/>
    <type id="highway.unsurfaced" priority="1" numLanes="1" speed="8.33" disallow="tram rail_urban rail rail_electric rail_fast ship" oneway="0"/>
    <type id="railway.highspeed" priority="21" numLanes="1" speed="69.44" allow="rail_fast" oneway="1"/>
    <type id="railway.light_rail" priority="19" numLanes="1" speed="27.78" allow="rail_urban" oneway="1"/>
    <type id="railway.preserved" priority="16" numLanes="1" speed="27.78" allow="rail" oneway="1"/>
    <type id="railway.rail" priority="20" numLanes="1" speed="44.44" allow="rail" oneway="1"/>
    <type id="railway.subway" priority="18" numLanes="1" speed="27.78" allow="rail_urban" oneway="1"/>
    <type id="railway.tram" priority="17" numLanes="1" speed="13.89" allow="tram" oneway="1"/>

    <edge id=":1210144656_0" function="internal">
        <lane id=":1210144656_0_0" index="0" allow="bus bicycle" speed="3.65" length="4.67" shape="140.82,354.52 141.49,355.80 142.24,356.28 143.08,355.97 144.00,354.86"/>
    </edge>
    <edge id=":1210144817_0" function="internal">
        <lane id=":1210144817_0_0" index="0" disallow="pedestrian tram rail_urban rail rail_electric rail_fast ship" speed="19.44" length="0.64" shape="133.61,331.49 133.48,332.44"/>
        <lane id=":1210144817_0_1" index="1" disallow="pedestrian tram rail_urban rail rail_electric rail_fast ship" speed="19.44" length="0.64" shape="136.76,332.04 136.66,332.77"/>
        <lane id=":1210144817_0_2" index="2" disallow="pedestrian tram rail_urban rail rail_electric rail_fast ship" speed="19.44" length="0.64" shape="139.92,332.58 139.85,333.11"/>
        <lane id=":1210144817_0_3" index="3" disallow="pedestrian tram rail_urban rail rail_electric rail_fast ship" speed="19.44" length="0.64" shape="143.07,333.12 143.03,333.44"/>
    </edge>
    <edge id=":1210144817_4" function="internal">
        <lane id=":1210144817_4_0" index="0" allow="bus bicycle" speed="19.44" length="0.11" shape="146.21,333.77 146.22,333.67"/>
    </edge>
    <edge id=":1845246407_0" function="internal">
        <lane id=":1845246407_0_0" index="0" disallow="pedestrian tram rail_urban rail rail_electric rail_fast ship" speed="19.44" length="10.46" shape="204.69,56.70 204.20,59.12 203.79,60.76 203.21,62.36 202.26,64.64"/>
        <lane id=":1845246407_0_1" index="1" disallow="pedestrian tram rail_urban rail rail_electric rail_fast ship" speed="19.44" length="10.46" shape="207.84,57.28 207.31,59.90 206.86,61.68 206.24,63.41 205.21,65.89"/>
        <lane id=":1845246407_0_2" index="2" disallow="pedestrian tram rail_urban rail rail_electric rail_fast ship" speed="19.44" length="10.46" shape="210.98,57.86 210.42,60.69 209.93,62.61 209.26,64.47 208.16,67.14"/>
        <lane id=":1845246407_0_3" index="3" disallow="pedestrian tram rail_urban rail rail_electric rail_fast ship" speed="19.44" length="10.46" shape="214.13,58.44 213.52,61.47 213.00,63.53 212.29,65.53 211.10,68.38"/>
        <lane id=":1845246407_0_4" index="4" disallow="pedestrian tram rail_urban rail rail_electric rail_fast ship" speed="19.44" length="10.46" shape="217.28,59.02 216.63,62.25 216.08,64.45 215.32,66.58 214.05,69.63"/>
        <lane id=":1845246407_0_5" index="5" disallow="pedestrian tram rail_urban rail rail_electric rail_fast ship" speed="19.44" length="10.46" shape="220.42,59.60 219.74,63.04 219.15,65.37 218.34,67.64 216.99,70.88"/>
        <lane id=":1845246407_0_6" index="6" disallow="pedestrian tram rail_urban rail rail_electric rail_fast ship" speed="19.44" length="10.46" shape="220.42,59.60 220.19,63.34 220.65,66.01 220.88,68.60 219.94,72.13"/>
    </edge>
    <edge id=":1845246407_7" function="internal">
        <lane id=":1845246407_7_0" index="0" allow="bus bicycle" speed="19.44" length="13.31" shape="222.89,73.38 223.68,70.06 223.60,66.89 223.34,63.66 223.57,60.18"/>
    </edge>
    <edge id=":243988142_0" function="internal">
        <lane id=":243988142_0_0" index="0" allow="bus bicycle" speed="3.65" length="4.67" shape="163.72,433.58 164.75,434.58 165.62,434.80 166.32,434.24 166.84,432.90"/>
    </edge>
    <edge id=":243988167_0" function="internal">
        <lane id=":243988167_0_0" index="0" allow="bus bicycle" speed="19.44" length="8.03" shape="177.94,283.80 175.15,291.33"/>
    </edge>
    <edge id=":243988167_1" function="internal">
        <lane id=":243988167_1_0" index="0" disallow="tram rail_urban rail rail_electric rail_fast ship" speed="19.44" length="8.64" shape="187.16,295.76 188.48,293.63 190.04,292.58 191.61,291.52 192.93,289.40"/>
        <lane id=":243988167_1_1" index="1" disallow="tram rail_urban rail rail_electric rail_fast ship" speed="19.44" length="8.64" shape="184.16,294.65 185.48,292.52 187.04,291.46 188.61,290.41 189.94,288.28"/>
        <lane id=":243988167_1_2" index="2" disallow="tram rail_urban rail rail_electric rail_fast ship" speed="19.44" length="8.64" shape="181.16,293.55 182.48,291.41 184.04,290.35 185.61,289.29 186.94,287.16"/>
        <lane id=":243988167_1_3" index="3" disallow="tram rail_urban rail rail_electric rail_fast ship" speed="19.44" length="8.64" shape="178.15,292.44 179.47,290.30 181.04,289.24 182.61,288.18 183.94,286.04"/>
        <lane id=":243988167_1_4" index="4" disallow="tram rail_urban rail rail_electric rail_fast ship" speed="19.44" length="8.64" shape="178.15,292.44 180.94,284.92"/>
    </edge>
    <edge id=":2507063812_0" function="internal">
        <lane id=":2507063812_0_0" index="0" disallow="tram rail_urban rail rail_electric rail_fast ship" speed="6.15" length="7.56" shape="454.95,258.97 453.60,261.21 452.22,262.63 450.82,263.24 449.40,263.03"/>
    </edge>
    <edge id=":2507063812_1" function="internal">
        <lane id=":2507063812_1_0" index="0" disallow="tram rail_urban rail rail_electric rail_fast ship" speed="6.35" length="9.04" shape="460.50,267.72 458.35,266.44 457.19,264.79 457.01,262.78 457.81,260.41"/>
    </edge>
    <edge id=":2507063812_2" function="internal">
        <lane id=":2507063812_2_0" index="0" disallow="tram rail_urban rail rail_electric rail_fast ship" speed="19.44" length="12.09" shape="460.50,267.72 449.40,263.03"/>
        <lane id=":2507063812_2_1" index="1" disallow="tram rail_urban rail rail_electric rail_fast ship" speed="19.44" length="12.09" shape="459.27,270.68 448.13,265.97"/>
        <lane id=":2507063812_2_2" index="2" disallow="tram rail_urban rail rail_electric rail_fast ship" speed="19.44" length="12.09" shape="458.03,273.63 446.87,268.91"/>
    </edge>
    <edge id=":2507063827_0" function="internal">
        <lane id=":2507063827_0_0" index="0" disallow="tram rail_urban rail rail_electric rail_fast ship" speed="3.65" length="4.67" shape="469.65,1.35 470.23,0.03 470.14,-0.86 469.37,-1.32 467.93,-1.35"/>
    </edge>
    <edge id=":3203995118_0" function="internal">
        <lane id=":3203995118_0_0" index="0" disallow="pedestrian tram rail_urban rail rail_electric rail_fast ship" speed="10.79" length="13.05" shape="227.16,167.83 225.18,164.35 223.85,161.52 223.19,159.31 223.18,157.73"/>
        <lane id=":3203995118_0_1" index="1" disallow="pedestrian tram rail_urban rail rail_electric rail_fast ship" speed="11.76" length="13.05" shape="224.24,169.17 222.05,165.25 220.63,161.91 219.97,159.13 220.09,156.93"/>
        <lane id=":3203995118_0_2" index="2" disallow="pedestrian tram rail_urban rail rail_electric rail_fast ship" speed="12.50" length="13.05" shape="224.24,169.17 222.85,166.91 220.32,162.69 217.94,158.45 216.99,156.12"/>
    </edge>
    <edge id=":3203995118_3" function="internal">
        <lane id=":3203995118_3_0" index="0" disallow="pedestrian tram rail_urban rail rail_electric rail_fast ship" speed="19.44" length="12.27" shape="220.06,169.61 223.18,157.73"/>
        <lane id=":3203995118_3_1" index="1" disallow="pedestrian tram rail_urban rail rail_electric rail_fast ship" speed="19.44" length="12.27" shape="216.97,168.80 220.09,156.93"/>
        <lane id=":3203995118_3_2" index="2" disallow="pedestrian tram rail_urban rail rail_electric rail_fast ship" speed="19.44" length="12.27" shape="213.87,167.99 216.99,156.12"/>
        <lane id=":3203995118_3_3" index="3" disallow="pedestrian tram rail_urban rail rail_electric rail_fast ship" speed="19.44" length="12.27" shape="210.78,167.17 213.89,155.32"/>
    </edge>
    <edge id=":3728639960_0" function="internal">
        <lane id=":3728639960_0_0" index="0" disallow="pedestrian tram rail_urban rail rail_electric rail_fast ship" speed="16.66" length="32.76" shape="286.09,195.86 276.30,193.90 268.55,191.25 261.80,188.40 255.01,185.84"/>
        <lane id=":3728639960_0_1" index="1" disallow="pedestrian tram rail_urban rail rail_electric rail_fast ship" speed="16.66" length="34.34" shape="286.09,195.86 275.93,194.30 267.35,192.55 259.78,190.59 252.61,188.44"/>
    </edge>
    <edge id=":3728639960_2" function="internal">
        <lane id=":3728639960_2_0" index="0" disallow="pedestrian tram rail_urban rail rail_electric rail_fast ship" speed="19.44" length="35.16" shape="286.09,195.86 251.16,191.59"/>
        <lane id=":3728639960_2_1" index="1" disallow="pedestrian tram rail_urban rail rail_electric rail_fast ship" speed="19.44" length="35.16" shape="285.68,199.03 250.77,194.77"/>
        <lane id=":3728639960_2_2" index="2" disallow="pedestrian tram rail_urban rail rail_electric rail_fast ship" speed="19.44" length="35.16" shape="285.26,202.20 250.39,197.95"/>
    </edge>
    <edge id=":3728650727_0" function="internal">
        <lane id=":3728650727_0_0" index="0" allow="bus bicycle" speed="19.44" length="8.26" shape="196.39,227.81 195.99,230.20 196.18,231.92 196.33,233.62 195.80,235.96"/>
    </edge>
    <edge id=":3728650727_1" function="internal">
        <lane id=":3728650727_1_0" index="0" allow="bus bicycle" speed="8.23" length="3.84" shape="196.39,227.81 196.96,231.61"/>
    </edge>
    <edge id=":3728650727_2" function="internal">
        <lane id=":3728650727_2_0" index="0" allow="bus bicycle" speed="3.65" length="1.44" shape="196.39,227.81 196.80,229.20"/>
    </edge>
    <edge id=":3728650727_9" function="internal">
        <lane id=":3728650727_9_0" index="0" allow="bus bicycle" speed="8.23" length="25.61" shape="196.96,231.61 197.27,233.65 203.17,234.58 211.04,231.54 217.85,225.46"/>
    </edge>
    <edge id=":3728650727_10" function="internal">
        <lane id=":3728650727_10_0" index="0" allow="bus bicycle" speed="3.65" length="3.23" shape="196.80,229.20 197.45,229.81 198.33,229.67 199.45,228.76"/>
    </edge>
    <edge id=":3728650727_3" function="internal">
        <lane id=":3728650727_3_0" index="0" disallow="pedestrian tram rail_urban rail rail_electric rail_fast ship" speed="16.66" length="17.63" shape="210.79,241.56 212.78,236.14 214.38,231.94 215.94,228.53 217.85,225.46"/>
    </edge>
    <edge id=":3728650727_4" function="internal">
        <lane id=":3728650727_4_0" index="0" disallow="pedestrian tram rail_urban rail rail_electric rail_fast ship" speed="19.44" length="10.41" shape="210.79,241.56 211.00,238.67 209.81,236.61 208.58,234.53 208.62,231.58"/>
        <lane id=":3728650727_4_1" index="1" disallow="pedestrian tram rail_urban rail rail_electric rail_fast ship" speed="19.44" length="10.41" shape="207.79,240.44 207.98,237.60 206.78,235.58 205.54,233.53 205.56,230.64"/>
        <lane id=":3728650727_4_2" index="2" disallow="pedestrian tram rail_urban rail rail_electric rail_fast ship" speed="19.44" length="10.41" shape="204.80,239.32 204.96,236.53 203.75,234.54 202.49,232.54 202.51,229.70"/>
        <lane id=":3728650727_4_3" index="3" disallow="pedestrian tram rail_urban rail rail_electric rail_fast ship" speed="19.44" length="10.41" shape="201.80,238.20 201.95,235.46 200.72,233.51 199.45,231.55 199.45,228.76"/>
    </edge>
    <edge id=":3728650727_8" function="internal">
        <lane id=":3728650727_8_0" index="0" allow="bus bicycle" speed="3.65" length="1.44" shape="198.80,237.08 198.47,235.68"/>
    </edge>
    <edge id=":3728650727_11" function="internal">
        <lane id=":3728650727_11_0" index="0" allow="bus bicycle" speed="3.65" length="3.23" shape="198.47,235.68 197.86,235.02 196.97,235.12 195.80,235.96"/>
    </edge>
    <edge id=":3790462247_0" function="internal">
        <lane id=":3790462247_0_0" index="0" disallow="tram rail_urban rail rail_electric rail_fast ship" speed="3.65" length="4.67" shape="140.75,249.92 141.05,248.51 140.78,247.65 139.93,247.36 138.51,247.62"/>
    </edge>
    <edge id=":3904772771_0" function="internal">
        <lane id=":3904772771_0_0" index="0" disallow="tram rail_urban rail rail_electric rail_fast ship" speed="19.44" length="8.31" shape="243.71,59.52 244.59,57.19 245.92,55.87 247.26,54.56 248.17,52.24"/>
        <lane id=":3904772771_0_1" index="1" disallow="tram rail_urban rail rail_electric rail_fast ship" speed="19.44" length="8.31" shape="243.71,59.52 245.02,51.69"/>
        <lane id=":3904772771_0_2" index="2" disallow="tram rail_urban rail rail_electric rail_fast ship" speed="19.44" length="8.31" shape="240.55,59.01 241.87,51.14"/>
        <lane id=":3904772771_0_3" index="3" disallow="tram rail_urban rail rail_electric rail_fast ship" speed="19.44" length="8.31" shape="237.39,58.51 238.72,50.58"/>
        <lane id=":3904772771_0_4" index="4" disallow="tram rail_urban rail rail_electric rail_fast ship" speed="19.44" length="8.31" shape="237.39,58.51 237.29,55.98 236.45,54.27 235.63,52.56 235.56,50.03"/>
    </edge>
    <edge id=":3904772773_0" function="internal">
        <lane id=":3904772773_0_0" index="0" disallow="pedestrian tram rail_urban rail rail_electric rail_fast ship" speed="19.44" length="8.54" shape="217.41,22.84 216.36,25.21 214.94,26.55 213.58,27.90 212.66,30.30"/>
        <lane id=":3904772773_0_1" index="1" disallow="pedestrian tram rail_urban rail rail_electric rail_fast ship" speed="19.44" length="8.54" shape="220.53,23.56 219.49,25.88 218.08,27.18 216.72,28.49 215.82,30.84"/>
        <lane id=":3904772773_0_2" index="2" disallow="pedestrian tram rail_urban rail rail_electric rail_fast ship" speed="19.44" length="8.54" shape="223.65,24.28 222.62,26.54 221.22,27.81 219.87,29.08 218.97,31.37"/>
        <lane id=":3904772773_0_3" index="3" disallow="pedestrian tram rail_urban rail rail_electric rail_fast ship" speed="19.44" length="8.54" shape="226.77,25.00 225.75,27.21 224.36,28.44 223.01,29.67 222.13,31.91"/>
        <lane id=":3904772773_0_4" index="4" disallow="pedestrian tram rail_urban rail rail_electric rail_fast ship" speed="19.44" length="8.54" shape="226.77,25.00 225.28,32.45"/>
    </edge>
    <edge id=":3904772773_5" function="internal">
        <lane id=":3904772773_5_0" index="0" allow="bus bicycle" speed="19.44" length="7.41" shape="228.44,32.98 229.89,25.71"/>
    </edge>
    <edge id=":4735040062_0" function="internal">
        <lane id=":4735040062_0_0" index="0" allow="bus bicycle" speed="3.65" length="4.67" shape="234.38,6.18 233.87,4.83 233.18,4.26 232.31,4.47 231.26,5.46"/>
    </edge>
    <edge id=":4751045565_0" function="internal">
        <lane id=":4751045565_0_0" index="0" disallow="pedestrian tram rail_urban rail rail_electric rail_fast ship" speed="19.44" length="0.35" shape="299.65,221.80 299.77,221.83"/>
        <lane id=":4751045565_0_1" index="1" disallow="pedestrian tram rail_urban rail rail_electric rail_fast ship" speed="19.44" length="0.35" shape="300.38,218.68 300.72,218.77"/>
        <lane id=":4751045565_0_2" index="2" disallow="pedestrian tram rail_urban rail rail_electric rail_fast ship" speed="19.44" length="0.35" shape="301.10,215.56 301.67,215.72"/>
    </edge>
    <edge id=":4751045566_0" function="internal">
        <lane id=":4751045566_0_0" index="0" disallow="pedestrian tram rail_urban rail rail_electric rail_fast ship" speed="19.44" length="0.83" shape="308.11,201.31 307.75,201.12 307.49,200.99 307.23,200.89 306.85,200.76"/>
        <lane id=":4751045566_0_1" index="1" disallow="pedestrian tram rail_urban rail rail_electric rail_fast ship" speed="19.44" length="0.83" shape="306.57,204.12 306.36,204.00 306.21,203.93 306.05,203.87 305.82,203.79"/>
        <lane id=":4751045566_0_2" index="2" disallow="pedestrian tram rail_urban rail rail_electric rail_fast ship" speed="19.44" length="0.83" shape="305.04,206.93 304.97,206.89 304.92,206.86 304.87,206.84 304.79,206.82"/>
    </edge>
    <edge id=":5406526740_0" function="internal">
        <lane id=":5406526740_0_0" index="0" disallow="pedestrian tram rail_urban rail rail_electric rail_fast ship" speed="16.66" length="6.48" shape="240.37,89.61 240.89,87.77 241.42,86.57 242.10,85.42 243.06,83.76"/>
    </edge>
    <edge id=":5406526740_1" function="internal">
        <lane id=":5406526740_1_0" index="0" disallow="pedestrian tram rail_urban rail rail_electric rail_fast ship" speed="19.44" length="6.70" shape="237.26,88.85 237.88,86.94 238.51,85.69 239.12,84.44 239.68,82.51"/>
        <lane id=":5406526740_1_1" index="1" disallow="pedestrian tram rail_urban rail rail_electric rail_fast ship" speed="19.44" length="6.70" shape="234.15,88.09 234.76,86.21 235.39,84.98 235.99,83.75 236.55,81.85"/>
        <lane id=":5406526740_1_2" index="2" disallow="pedestrian tram rail_urban rail rail_electric rail_fast ship" speed="19.44" length="6.70" shape="231.04,87.33 231.65,85.48 232.27,84.28 232.87,83.07 233.41,81.20"/>
    </edge>
    <edge id=":5406526748_0" function="internal">
        <lane id=":5406526748_0_0" index="0" allow="bus bicycle" speed="3.65" length="0.86" shape="258.83,31.04 259.12,31.86"/>
    </edge>
    <edge id=":5406526748_2" function="internal">
        <lane id=":5406526748_2_0" index="0" allow="bus bicycle" speed="3.65" length="3.81" shape="259.12,31.86 259.31,32.40 259.99,32.99 260.87,32.79 261.93,31.82"/>
    </edge>
    <edge id=":5406526748_1" function="internal">
        <lane id=":5406526748_1_0" index="0" disallow="pedestrian tram rail_urban rail rail_electric rail_fast ship" speed="13.89" length="3.34" shape="259.62,34.23 261.93,31.82"/>
    </edge>
    <edge id=":6927201374_0" function="internal">
        <lane id=":6927201374_0_0" index="0" disallow="tram rail_urban rail rail_electric rail_fast ship" speed="6.79" length="17.26" shape="343.90,226.55 338.34,228.25 336.32,230.29 337.86,232.66 342.93,235.37"/>
        <lane id=":6927201374_0_1" index="1" disallow="tram rail_urban rail rail_electric rail_fast ship" speed="5.64" length="11.33" shape="343.90,226.55 340.49,227.63 339.39,228.98 340.62,230.57 344.17,232.42"/>
    </edge>
    <edge id=":6927201374_2" function="internal">
        <lane id=":6927201374_2_0" index="0" disallow="tram rail_urban rail rail_electric rail_fast ship" speed="19.44" length="12.11" shape="330.51,233.61 341.70,238.32"/>
        <lane id=":6927201374_2_1" index="1" disallow="tram rail_urban rail rail_electric rail_fast ship" speed="19.44" length="12.11" shape="331.77,230.67 342.93,235.37"/>
        <lane id=":6927201374_2_2" index="2" disallow="tram rail_urban rail rail_electric rail_fast ship" speed="19.44" length="12.11" shape="333.03,227.73 344.17,232.42"/>
    </edge>
    <edge id=":6927201378_0" function="internal">
        <lane id=":6927201378_0_0" index="0" disallow="tram rail_urban rail rail_electric rail_fast ship" speed="19.44" length="9.98" shape="357.42,219.28 354.58,218.15 352.56,217.55 350.51,217.07 347.55,216.25"/>
        <lane id=":6927201378_0_1" index="1" disallow="tram rail_urban rail rail_electric rail_fast ship" speed="19.44" length="9.98" shape="356.14,222.21 353.40,221.12 351.45,220.56 349.47,220.10 346.61,219.31"/>
        <lane id=":6927201378_0_2" index="2" disallow="tram rail_urban rail rail_electric rail_fast ship" speed="19.44" length="9.98" shape="354.86,225.15 352.22,224.10 350.34,223.56 348.43,223.12 345.68,222.37"/>
    </edge>
    <edge id=":6927201378_3" function="internal">
        <lane id=":6927201378_3_0" index="0" disallow="tram rail_urban rail rail_electric rail_fast ship" speed="11.79" length="8.74" shape="353.58,228.08 351.23,226.95 349.53,226.20 347.79,225.93 345.29,226.25"/>
    </edge>
    <edge id=":6979917294_0" function="internal">
        <lane id=":6979917294_0_0" index="0" allow="bus bicycle" speed="3.65" length="4.67" shape="265.11,19.14 264.63,17.78 263.95,17.20 263.08,17.39 262.01,18.36"/>
    </edge>
    <edge id=":6979917295_0" function="internal">
        <lane id=":6979917295_0_0" index="0" disallow="tram rail_urban rail rail_electric rail_fast ship" speed="19.44" length="8.20" shape="247.98,34.79 248.63,32.51 249.45,31.06 250.29,29.61 251.00,27.34"/>
        <lane id=":6979917295_0_1" index="1" disallow="tram rail_urban rail rail_electric rail_fast ship" speed="19.44" length="8.20" shape="244.82,34.24 245.48,31.93 246.31,30.47 247.15,29.00 247.86,26.71"/>
        <lane id=":6979917295_0_2" index="2" disallow="tram rail_urban rail rail_electric rail_fast ship" speed="19.44" length="8.20" shape="241.67,33.69 242.33,31.36 243.16,29.88 244.00,28.40 244.72,26.09"/>
        <lane id=":6979917295_0_3" index="3" disallow="tram rail_urban rail rail_electric rail_fast ship" speed="19.44" length="8.20" shape="238.52,33.13 239.18,30.79 240.01,29.29 240.86,27.80 241.58,25.46"/>
    </edge>
    <edge id=":6979917296_0" function="internal">
        <lane id=":6979917296_0_0" index="0" disallow="pedestrian tram rail_urban rail rail_electric rail_fast ship" speed="19.44" length="8.62" shape="210.38,43.75 209.48,46.02 208.15,47.29 206.79,48.55 205.84,50.81"/>
        <lane id=":6979917296_0_1" index="1" disallow="pedestrian tram rail_urban rail rail_electric rail_fast ship" speed="19.44" length="8.62" shape="213.53,44.29 212.64,46.58 211.29,47.86 209.93,49.14 208.98,51.42"/>
        <lane id=":6979917296_0_2" index="2" disallow="pedestrian tram rail_urban rail rail_electric rail_fast ship" speed="19.44" length="8.62" shape="216.69,44.83 215.79,47.14 214.44,48.44 213.08,49.73 212.12,52.03"/>
        <lane id=":6979917296_0_3" index="3" disallow="pedestrian tram rail_urban rail rail_electric rail_fast ship" speed="19.44" length="8.62" shape="219.84,45.36 218.94,47.70 217.59,49.01 216.22,50.32 215.26,52.65"/>
        <lane id=":6979917296_0_4" index="4" disallow="pedestrian tram rail_urban rail rail_electric rail_fast ship" speed="19.44" length="8.62" shape="223.00,45.90 222.09,48.25 220.74,49.59 219.37,50.91 218.40,53.26"/>
        <lane id=":6979917296_0_5" index="5" disallow="pedestrian tram rail_urban rail rail_electric rail_fast ship" speed="19.44" length="8.62" shape="223.00,45.90 221.54,53.87"/>
    </edge>
    <edge id=":6979917296_6" function="internal">
        <lane id=":6979917296_6_0" index="0" allow="bus bicycle" speed="19.44" length="8.18" shape="224.68,54.48 226.15,46.43"/>
    </edge>
    <edge id=":739808396-AddedOffRampNode_0" function="internal">
        <lane id=":739808396-AddedOffRampNode_0_0" index="0" disallow="tram rail_urban rail rail_electric rail_fast ship" speed="19.44" length="5.89" shape="449.22,262.95 447.77,261.79 447.27,260.37 446.77,258.95 445.33,257.79"/>
        <lane id=":739808396-AddedOffRampNode_0_1" index="1" disallow="tram rail_urban rail rail_electric rail_fast ship" speed="19.44" length="5.89" shape="449.22,262.95 444.06,260.73"/>
        <lane id=":739808396-AddedOffRampNode_0_2" index="2" disallow="tram rail_urban rail rail_electric rail_fast ship" speed="19.44" length="5.89" shape="447.95,265.89 442.79,263.66"/>
        <lane id=":739808396-AddedOffRampNode_0_3" index="3" disallow="tram rail_urban rail rail_electric rail_fast ship" speed="19.44" length="5.89" shape="446.69,268.83 441.52,266.60"/>
    </edge>
    <edge id=":cluster_241926220_241926356_6935401656_0" function="internal">
        <lane id=":cluster_241926220_241926356_6935401656_0_0" index="0" disallow="pedestrian tram rail_urban rail rail_electric rail_fast ship" speed="19.44" length="46.25" shape="246.04,190.97 233.97,189.54 221.22,187.99 209.44,186.34 200.29,184.60"/>
        <lane id=":cluster_241926220_241926356_6935401656_0_1" index="1" disallow="pedestrian tram rail_urban rail rail_electric rail_fast ship" speed="19.44" length="46.25" shape="245.36,194.11 233.28,192.68 220.50,191.12 208.69,189.45 199.53,187.71"/>
    </edge>
    <edge id=":cluster_241926220_241926356_6935401656_2" function="internal">
        <lane id=":cluster_241926220_241926356_6935401656_2_0" index="0" disallow="pedestrian tram rail_urban rail rail_electric rail_fast ship" speed="15.04" length="10.01" shape="231.72,211.79 234.56,211.03 236.59,210.83 238.63,211.09 241.53,211.72"/>
    </edge>
    <edge id=":cluster_241926220_241926356_6935401656_3" function="internal">