<?xml version="1.0" encoding="UTF-8"?>

<!-- generated on 2023-07-18 14:38:42 by Eclipse SUMO netconvert Version 1.17.0
<configuration xmlns:xsi="http://www.w3.org/2001/XMLSchema-instance" xsi:noNamespaceSchemaLocation="http://sumo.dlr.de/xsd/netconvertConfiguration.xsd">

    <input>
        <sumo-net-file value="osm.net.xml.gz"/>
    </input>

    <output>
        <output-file value="osm.net.xml"/>
        <output.street-names value="true"/>
    </output>

    <processing>
        <geometry.min-radius.fix.railways value="false"/>
        <geometry.max-grade.fix value="false"/>
        <offset.disable-normalization value="true"/>
        <lefthand value="1"/>
    </processing>

    <junctions>
        <no-turnarounds value="true"/>
        <junctions.corner-detail value="5"/>
        <junctions.limit-turn-speed value="5.50"/>
        <rectangular-lane-cut value="0"/>
    </junctions>

    <pedestrian>
        <walkingareas value="0"/>
    </pedestrian>

</configuration>
-->

<net version="1.16" junctionCornerDetail="5" lefthand="true" limitTurnSpeed="5.50" xmlns:xsi="http://www.w3.org/2001/XMLSchema-instance" xsi:noNamespaceSchemaLocation="http://sumo.dlr.de/xsd/net_file.xsd">

    <location netOffset="-384591.89,-145553.79" convBoundary="0.00,0.00,1774.15,1940.96" origBoundary="103.962641,1.316651,103.978582,1.334215" projParameter="+proj=utm +zone=48 +ellps=WGS84 +datum=WGS84 +units=m +no_defs"/>

    <type id="highway.bridleway" priority="1" numLanes="1" speed="2.78" allow="pedestrian" oneway="1" width="2.00"/>
    <type id="highway.bus_guideway" priority="1" numLanes="1" speed="27.78" allow="bus" oneway="1"/>
    <type id="highway.cycleway" priority="1" numLanes="1" speed="5.56" allow="bicycle" oneway="0" width="1.00"/>
    <type id="highway.footway" priority="1" numLanes="1" speed="2.78" allow="pedestrian" oneway="1" width="2.00"/>
    <type id="highway.ford" priority="1" numLanes="1" speed="2.78" allow="army" oneway="0"/>
    <type id="highway.living_street" priority="2" numLanes="1" speed="2.78" disallow="tram rail_urban rail rail_electric rail_fast ship" oneway="0"/>
    <type id="highway.motorway" priority="14" numLanes="2" speed="39.44" allow="private emergency authority army vip passenger hov taxi bus coach delivery truck trailer motorcycle evehicle custom1 custom2" oneway="1"/>
    <type id="highway.motorway_link" priority="9" numLanes="1" speed="22.22" allow="private emergency authority army vip passenger hov taxi bus coach delivery truck trailer motorcycle evehicle custom1 custom2" oneway="1"/>
    <type id="highway.path" priority="1" numLanes="1" speed="5.56" allow="pedestrian bicycle" oneway="0" width="2.00"/>
    <type id="highway.pedestrian" priority="1" numLanes="1" speed="2.78" allow="pedestrian" oneway="1" width="2.00"/>
    <type id="highway.primary" priority="12" numLanes="2" speed="27.78" disallow="tram rail_urban rail rail_electric rail_fast ship" oneway="0"/>
    <type id="highway.primary_link" priority="7" numLanes="1" speed="22.22" disallow="tram rail_urban rail rail_electric rail_fast ship" oneway="0"/>
    <type id="highway.raceway" priority="15" numLanes="2" speed="83.33" allow="vip" oneway="0"/>
    <type id="highway.residential" priority="3" numLanes="1" speed="13.89" disallow="tram rail_urban rail rail_electric rail_fast ship" oneway="0"/>
    <type id="highway.secondary" priority="11" numLanes="1" speed="27.78" disallow="tram rail_urban rail rail_electric rail_fast ship" oneway="0"/>
    <type id="highway.secondary_link" priority="6" numLanes="1" speed="22.22" disallow="tram rail_urban rail rail_electric rail_fast ship" oneway="0"/>
    <type id="highway.service" priority="1" numLanes="1" speed="5.56" allow="pedestrian delivery bicycle" oneway="0"/>
    <type id="highway.stairs" priority="1" numLanes="1" speed="1.39" allow="pedestrian" oneway="1" width="2.00"/>
    <type id="highway.step" priority="1" numLanes="1" speed="1.39" allow="pedestrian" oneway="1" width="2.00"/>
    <type id="highway.steps" priority="1" numLanes="1" speed="1.39" allow="pedestrian" oneway="1" width="2.00"/>
    <type id="highway.tertiary" priority="10" numLanes="1" speed="22.22" disallow="tram rail_urban rail rail_electric rail_fast ship" oneway="0"/>
    <type id="highway.tertiary_link" priority="5" numLanes="1" speed="22.22" disallow="tram rail_urban rail rail_electric rail_fast ship" oneway="0"/>
    <type id="highway.track" priority="1" numLanes="1" speed="5.56" allow="pedestrian motorcycle moped bicycle" oneway="0"/>
    <type id="highway.trunk" priority="13" numLanes="2" speed="27.78" disallow="pedestrian bicycle tram rail_urban rail rail_electric rail_fast ship" oneway="0"/>
    <type id="highway.trunk_link" priority="8" numLanes="1" speed="22.22" disallow="pedestrian bicycle tram rail_urban rail rail_electric rail_fast ship" oneway="0"/>
    <type id="highway.unclassified" priority="4" numLanes="1" speed="13.89" disallow="tram rail_urban rail rail_electric rail_fast ship" oneway="0"/>
    <type id="highway.unsurfaced" priority="1" numLanes="1" speed="8.33" disallow="tram rail_urban rail rail_electric rail_fast ship" oneway="0"/>
    <type id="railway.highspeed" priority="21" numLanes="1" speed="69.44" allow="rail_fast" oneway="1"/>
    <type id="railway.light_rail" priority="19" numLanes="1" speed="27.78" allow="rail_urban" oneway="1"/>
    <type id="railway.preserved" priority="16" numLanes="1" speed="27.78" allow="rail" oneway="1"/>
    <type id="railway.rail" priority="20" numLanes="1" speed="44.44" allow="rail" oneway="1"/>
    <type id="railway.subway" priority="18" numLanes="1" speed="27.78" allow="rail_urban" oneway="1"/>
    <type id="railway.tram" priority="17" numLanes="1" speed="13.89" allow="tram" oneway="1"/>

    <edge id=":1143890000_0" function="internal">
        <lane id=":1143890000_0_0" index="0" allow="private emergency authority army vip passenger hov taxi bus coach delivery truck trailer motorcycle evehicle custom1 custom2" speed="19.45" length="3.12" shape="1084.82,1020.84 1086.64,1023.37"/>
    </edge>
    <edge id=":1143890000_1" function="internal">
        <lane id=":1143890000_1_0" index="0" allow="private emergency authority army vip passenger hov taxi bus coach delivery truck trailer motorcycle evehicle custom1 custom2" speed="25.00" length="2.96" shape="1087.56,1019.02 1089.27,1021.54"/>
        <lane id=":1143890000_1_1" index="1" allow="private emergency authority army vip passenger hov taxi bus coach delivery truck trailer motorcycle evehicle custom1 custom2" speed="25.00" length="2.96" shape="1090.23,1017.26 1091.89,1019.71"/>
        <lane id=":1143890000_1_2" index="2" allow="private emergency authority army vip passenger hov taxi bus coach delivery truck trailer motorcycle evehicle custom1 custom2" speed="25.00" length="2.96" shape="1092.90,1015.49 1094.52,1017.88"/>
    </edge>
    <edge id=":1143890033_0" function="internal">
        <lane id=":1143890033_0_0" index="0" allow="private emergency authority army vip passenger hov taxi bus coach delivery truck trailer motorcycle evehicle custom1 custom2" speed="19.45" length="2.94" shape="983.51,867.63 985.09,870.11"/>
    </edge>
    <edge id=":1143890033_1" function="internal">
        <lane id=":1143890033_1_0" index="0" allow="private emergency authority army vip passenger hov taxi bus coach delivery truck trailer motorcycle evehicle custom1 custom2" speed="25.00" length="3.02" shape="986.20,865.89 987.83,868.39"/>
        <lane id=":1143890033_1_1" index="1" allow="private emergency authority army vip passenger hov taxi bus coach delivery truck trailer motorcycle evehicle custom1 custom2" speed="25.00" length="3.02" shape="988.89,864.16 990.54,866.69"/>
        <lane id=":1143890033_1_2" index="2" allow="private emergency authority army vip passenger hov taxi bus coach delivery truck trailer motorcycle evehicle custom1 custom2" speed="25.00" length="3.02" shape="991.58,862.43 993.25,864.99"/>
    </edge>
    <edge id=":1143899970_0" function="internal">
        <lane id=":1143899970_0_0" index="0" allow="private emergency authority army vip passenger hov taxi bus coach delivery truck trailer motorcycle evehicle custom1 custom2" speed="25.00" length="2.87" shape="880.94,656.98 879.22,654.53"/>
        <lane id=":1143899970_0_1" index="1" allow="private emergency authority army vip passenger hov taxi bus coach delivery truck trailer motorcycle evehicle custom1 custom2" speed="25.00" length="2.87" shape="878.29,658.77 876.64,656.42"/>
        <lane id=":1143899970_0_2" index="2" allow="private emergency authority army vip passenger hov taxi bus coach delivery truck trailer motorcycle evehicle custom1 custom2" speed="25.00" length="2.87" shape="875.64,660.56 874.06,658.32"/>
    </edge>
    <edge id=":1143899970_3" function="internal">
        <lane id=":1143899970_3_0" index="0" allow="private emergency authority army vip passenger hov taxi bus coach delivery truck trailer motorcycle evehicle custom1 custom2" speed="19.45" length="3.13" shape="883.58,655.20 881.79,652.63"/>
    </edge>
    <edge id=":1143899973_0" function="internal">
        <lane id=":1143899973_0_0" index="0" allow="private emergency authority army vip passenger hov taxi bus coach delivery truck trailer motorcycle evehicle custom1 custom2" speed="13.89" length="8.19" shape="1063.59,898.32 1062.51,896.17 1062.11,894.52 1061.70,892.89 1060.59,890.76"/>
    </edge>
    <edge id=":1143899974_0" function="internal">
        <lane id=":1143899974_0_0" index="0" allow="private emergency authority army vip passenger hov taxi bus coach delivery truck trailer motorcycle evehicle custom1 custom2" speed="13.53" length="6.54" shape="983.43,772.59 981.67,771.74 980.44,771.15 979.39,770.35 978.18,768.88"/>
    </edge>
    <edge id=":1143899974_1" function="internal">
        <lane id=":1143899974_1_0" index="0" allow="private emergency authority army vip passenger hov taxi bus coach delivery truck trailer motorcycle evehicle custom1 custom2" speed="13.89" length="7.18" shape="980.93,775.46 979.51,773.90 978.26,773.10 977.00,772.29 975.58,770.74"/>
    </edge>
    <edge id=":1143900019_0" function="internal">
        <lane id=":1143900019_0_0" index="0" allow="private emergency authority army vip passenger hov taxi bus coach delivery truck trailer motorcycle evehicle custom1 custom2" speed="13.89" length="8.13" shape="941.21,727.10 939.88,725.11 939.27,723.54 938.65,721.99 937.26,720.05"/>
    </edge>
    <edge id=":1143900036_0" function="internal">
        <lane id=":1143900036_0_0" index="0" disallow="tram rail_urban rail rail_electric rail_fast ship" speed="13.89" length="15.14" shape="1011.54,781.74 1007.73,781.73 1003.90,781.54 1000.18,780.91 996.70,779.59"/>
    </edge>
    <edge id=":1143900036_1" function="internal">
        <lane id=":1143900036_1_0" index="0" disallow="tram rail_urban rail rail_electric rail_fast ship" speed="13.89" length="15.05" shape="1010.58,785.39 1007.08,784.02 1003.56,782.66 1000.08,781.21 996.70,779.59"/>
    </edge>
    <edge id=":1781924776_0" function="internal">
        <lane id=":1781924776_0_0" index="0" disallow="tram rail_urban rail rail_electric rail_fast ship" speed="15.28" length="7.19" shape="1443.91,1000.74 1442.21,999.50 1440.93,998.80 1439.67,998.07 1438.01,996.77"/>
        <lane id=":1781924776_0_1" index="1" disallow="tram rail_urban rail rail_electric rail_fast ship" speed="15.28" length="7.19" shape="1441.88,1003.21 1440.14,1001.94 1438.84,1001.22 1437.56,1000.49 1435.88,999.16"/>
    </edge>
    <edge id=":1781924776_2" function="internal">
        <lane id=":1781924776_2_0" index="0" allow="private emergency authority army vip passenger hov taxi bus coach delivery truck trailer motorcycle evehicle custom1 custom2" speed="15.28" length="7.04" shape="1439.85,1005.68 1438.20,1004.41 1436.98,1003.65 1435.70,1003.00 1433.85,1002.03"/>
    </edge>
    <edge id=":1781924789_0" function="internal">
        <lane id=":1781924789_0_0" index="0" allow="private emergency authority army vip passenger hov taxi bus coach delivery truck trailer motorcycle evehicle custom1 custom2" speed="13.89" length="0.28" shape="1173.18,1046.24 1172.92,1046.34"/>
    </edge>
    <edge id=":1781924798_0" function="internal">
        <lane id=":1781924798_0_0" index="0" allow="private emergency authority army vip passenger hov taxi bus coach delivery truck trailer motorcycle evehicle custom1 custom2" speed="13.89" length="0.30" shape="1099.51,1075.67 1099.23,1075.79"/>
    </edge>
    <edge id=":1782376557_0" function="internal">
        <lane id=":1782376557_0_0" index="0" allow="private emergency authority army vip passenger hov taxi bus coach delivery truck trailer motorcycle evehicle custom1 custom2" speed="23.61" length="3.07" shape="698.27,402.60 696.42,400.14"/>
    </edge>
    <edge id=":1782376557_1" function="internal">
        <lane id=":1782376557_1_0" index="0" allow="private emergency authority army vip passenger hov taxi bus coach delivery truck trailer motorcycle evehicle custom1 custom2" speed="25.00" length="2.84" shape="695.68,404.47 693.86,402.13"/>
        <lane id=":1782376557_1_1" index="1" allow="private emergency authority army vip passenger hov taxi bus coach delivery truck trailer motorcycle evehicle custom1 custom2" speed="25.00" length="2.84" shape="693.08,406.34 691.33,404.10"/>
        <lane id=":1782376557_1_2" index="2" allow="private emergency authority army vip passenger hov taxi bus coach delivery truck trailer motorcycle evehicle custom1 custom2" speed="25.00" length="2.84" shape="690.49,408.22 688.81,406.07"/>
    </edge>
    <edge id=":200159286#1-AddedOnRampNode_0" function="internal">
        <lane id=":200159286#1-AddedOnRampNode_0_0" index="0" allow="private emergency authority army vip passenger hov taxi bus coach delivery truck trailer motorcycle evehicle custom1 custom2" speed="25.00" length="8.00" shape="1348.22,1389.57 1352.82,1396.12"/>
        <lane id=":200159286#1-AddedOnRampNode_0_1" index="1" allow="private emergency authority army vip passenger hov taxi bus coach delivery truck trailer motorcycle evehicle custom1 custom2" speed="25.00" length="8.00" shape="1350.84,1387.74 1355.44,1394.28"/>
        <lane id=":200159286#1-AddedOnRampNode_0_2" index="2" allow="private emergency authority army vip passenger hov taxi bus coach delivery truck trailer motorcycle evehicle custom1 custom2" speed="25.00" length="8.00" shape="1353.46,1385.90 1358.06,1392.45"/>
    </edge>
    <edge id=":200159288#0-AddedOffRampNode_0" function="internal">
        <lane id=":200159288#0-AddedOffRampNode_0_0" index="0" allow="private emergency authority army vip passenger hov taxi bus coach delivery truck trailer motorcycle evehicle custom1 custom2" speed="25.00" length="8.20" shape="756.07,487.25 755.01,484.97 754.99,483.08 754.96,481.19 753.90,478.91"/>
        <lane id=":200159288#0-AddedOffRampNode_0_1" index="1" allow="private emergency authority army vip passenger hov taxi bus coach delivery truck trailer motorcycle evehicle custom1 custom2" speed="25.00" length="8.20" shape="756.07,487.25 751.33,480.81"/>
        <lane id=":200159288#0-AddedOffRampNode_0_2" index="2" allow="private emergency authority army vip passenger hov taxi bus coach delivery truck trailer motorcycle evehicle custom1 custom2" speed="25.00" length="8.20" shape="753.49,489.15 748.75,482.71"/>
        <lane id=":200159288#0-AddedOffRampNode_0_3" index="3" allow="private emergency authority army vip passenger hov taxi bus coach delivery truck trailer motorcycle evehicle custom1 custom2" speed="25.00" length="8.20" shape="750.91,491.05 746.17,484.60"/>
    </edge>
    <edge id=":200159288#0-AddedOnRampNode_0" function="internal">
        <lane id=":200159288#0-AddedOnRampNode_0_0" index="0" allow="private emergency authority army vip passenger hov taxi bus coach delivery truck trailer motorcycle evehicle custom1 custom2" speed="25.00" length="8.00" shape="823.14,578.36 818.40,571.92"/>
        <lane id=":200159288#0-AddedOnRampNode_0_1" index="1" allow="private emergency authority army vip passenger hov taxi bus coach delivery truck trailer motorcycle evehicle custom1 custom2" speed="25.00" length="8.00" shape="820.56,580.26 815.82,573.82"/>
        <lane id=":200159288#0-AddedOnRampNode_0_2" index="2" allow="private emergency authority army vip passenger hov taxi bus coach delivery truck trailer motorcycle evehicle custom1 custom2" speed="25.00" length="8.00" shape="817.99,582.16 813.24,575.72"/>
    </edge>
    <edge id=":242636340_0" function="internal">
        <lane id=":242636340_0_0" index="0" disallow="tram rail_urban rail rail_electric rail_fast ship" speed="16.67" length="7.54" shape="1441.75,1021.59 1443.35,1023.00 1444.15,1024.28 1444.90,1025.62 1446.34,1027.24"/>
        <lane id=":242636340_0_1" index="1" disallow="tram rail_urban rail rail_electric rail_fast ship" speed="16.67" length="7.54" shape="1443.57,1018.96 1445.26,1020.44 1446.13,1021.76 1446.95,1023.16 1448.48,1024.85"/>
    </edge>
    <edge id=":242636478_0" function="internal">
        <lane id=":242636478_0_0" index="0" allow="private emergency authority army vip passenger hov taxi bus coach delivery truck trailer motorcycle evehicle custom1 custom2" speed="15.28" length="60.99" shape="1264.83,1022.34 1273.16,1017.59 1288.63,1009.84 1306.12,1002.23 1320.51,997.89"/>
    </edge>
    <edge id=":242636478_1" function="internal">
        <lane id=":242636478_1_0" index="0" disallow="tram rail_urban rail rail_electric rail_fast ship" speed="16.67" length="61.60" shape="1263.67,1018.91 1274.30,1013.86 1289.77,1006.24 1306.28,998.91 1320.04,994.73"/>
        <lane id=":242636478_1_1" index="1" disallow="tram rail_urban rail rail_electric rail_fast ship" speed="16.67" length="61.60" shape="1262.90,1015.77 1273.58,1010.72 1289.15,1003.09 1305.76,995.75 1319.57,991.56"/>
    </edge>
    <edge id=":242636488_0" function="internal">
        <lane id=":242636488_0_0" index="0" disallow="tram rail_urban rail rail_electric rail_fast ship" speed="15.28" length="0.30" shape="1176.47,1054.14 1176.73,1054.04"/>
        <lane id=":242636488_0_1" index="1" disallow="tram rail_urban rail rail_electric rail_fast ship" speed="15.28" length="0.30" shape="1175.24,1051.19 1175.53,1051.07"/>
    </edge>
    <edge id=":242636500_0" function="internal">
        <lane id=":242636500_0_0" index="0" disallow="tram rail_urban rail rail_electric rail_fast ship" speed="13.89" length="11.37" shape="1045.27,1107.17 1048.18,1106.17 1050.49,1105.72 1052.92,1105.23 1056.19,1104.11"/>
    </edge>
    <edge id=":242636500_1" function="internal">
        <lane id=":242636500_1_0" index="0" allow="private emergency authority army vip passenger hov taxi bus coach delivery truck trailer motorcycle evehicle custom1 custom2" speed="13.89" length="11.13" shape="1044.20,1103.88 1047.22,1103.29 1049.49,1102.91 1051.80,1102.33 1054.96,1101.16"/>
    </edge>
    <edge id=":242651254_0" function="internal">
        <lane id=":242651254_0_0" index="0" allow="private emergency authority army vip passenger hov taxi bus coach delivery truck trailer motorcycle evehicle custom1 custom2" speed="13.89" length="0.32" shape="956.56,875.95 956.60,875.92 956.63,875.91 956.66,875.90 956.70,875.88"/>
        <lane id=":242651254_0_1" index="1" allow="private emergency authority army vip passenger hov taxi bus coach delivery truck trailer motorcycle evehicle custom1 custom2" speed="13.89" length="0.32" shape="955.00,873.15 955.13,873.08 955.22,873.03 955.30,872.99 955.43,872.94"/>
    </edge>
    <edge id=":242651400_0" function="internal">
        <lane id=":242651400_0_0" index="0" allow="private emergency authority army vip passenger hov taxi bus coach delivery truck trailer motorcycle evehicle custom1 custom2" speed="13.89" length="0.25" shape="1053.97,844.20 1054.15,844.16"/>
        <lane id=":242651400_0_1" index="1" allow="private emergency authority army vip passenger hov taxi bus coach delivery truck trailer motorcycle evehicle custom1 custom2" speed="13.89" length="0.25" shape="1053.26,841.08 1053.57,841.01"/>
    </edge>
    <edge id=":242651747_0" function="internal">
        <lane id=":242651747_0_0" index="0" disallow="tram rail_urban rail rail_electric rail_fast ship" speed="13.89" length="0.10" shape="953.37,867.43 953.37,867.43"/>
    </edge>
    <edge id=":242652085_0" function="internal">
        <lane id=":242652085_0_0" index="0" allow="private emergency authority army vip passenger hov taxi bus coach delivery truck trailer motorcycle evehicle custom1 custom2" speed="16.66" length="13.46" shape="831.48,942.92 829.38,946.17 828.04,948.50 826.43,950.58 823.56,953.08"/>
        <lane id=":242652085_0_1" index="1" allow="private emergency authority army vip passenger hov taxi bus coach delivery truck trailer motorcycle evehicle custom1 custom2" speed="16.66" length="13.46" shape="834.08,944.79 831.81,948.26 830.34,950.74 828.60,952.96 825.50,955.62"/>
    </edge>
    <edge id=":242652085_2" function="internal">
        <lane id=":242652085_2_0" index="0" disallow="tram rail_urban rail rail_electric rail_fast ship" speed="16.66" length="14.32" shape="836.67,947.33 834.33,949.68 832.67,952.25 830.71,955.08 827.44,958.17"/>
    </edge>
    <edge id=":242652217_0" function="internal">
        <lane id=":242652217_0_0" index="0" disallow="tram rail_urban rail rail_electric rail_fast ship" speed="13.89" length="0.10" shape="1049.25,835.40 1049.25,835.40"/>
    </edge>
    <edge id=":242652700_0" function="internal">
        <lane id=":242652700_0_0" index="0" disallow="tram rail_urban rail rail_electric rail_fast ship" speed="13.89" length="16.93" shape="1211.81,841.96 1206.56,840.33 1202.38,839.54 1198.80,838.99 1195.35,838.11"/>
    </edge>
    <edge id=":242652700_1" function="internal">
        <lane id=":242652700_1_0" index="0" disallow="tram rail_urban rail rail_electric rail_fast ship" speed="13.89" length="16.66" shape="1210.68,844.95 1205.55,843.30 1201.49,842.44 1197.96,841.95 1194.45,841.39"/>
    </edge>
    <edge id=":242652719_0" function="internal">
        <lane id=":242652719_0_0" index="0" disallow="tram rail_urban rail rail_electric rail_fast ship" speed="13.89" length="16.13" shape="1120.75,818.36 1117.08,817.07 1113.43,815.13 1109.95,812.86 1106.74,810.55"/>
    </edge>
    <edge id=":242652719_1" function="internal">
        <lane id=":242652719_1_0" index="0" disallow="tram rail_urban rail rail_electric rail_fast ship" speed="13.89" length="16.06" shape="1120.75,818.36 1105.30,813.98"/>
    </edge>
    <edge id=":242653137_0" function="internal">
        <lane id=":242653137_0_0" index="0" disallow="tram rail_urban rail rail_electric rail_fast ship" speed="16.66" length="13.33" shape="723.52,1054.41 726.86,1051.91 729.51,1050.32 732.03,1049.12 735.02,1047.79"/>
    </edge>
    <edge id=":242653137_1" function="internal">
        <lane id=":242653137_1_0" index="0" allow="private emergency authority army vip passenger hov taxi bus coach delivery truck trailer motorcycle evehicle custom1 custom2" speed="16.66" length="13.47" shape="721.52,1051.91 724.78,1049.63 727.24,1048.38 729.69,1047.14 732.96,1044.86"/>
        <lane id=":242653137_1_1" index="1" allow="private emergency authority army vip passenger hov taxi bus coach delivery truck trailer motorcycle evehicle custom1 custom2" speed="16.66" length="13.47" shape="719.52,1049.41 722.78,1047.13 725.24,1045.89 727.69,1044.65 730.96,1042.36"/>
    </edge>
    <edge id=":242653177_0" function="internal">
        <lane id=":242653177_0_0" index="0" disallow="tram rail_urban rail rail_electric rail_fast ship" speed="13.89" length="7.70" shape="855.58,1059.42 857.41,1060.67 858.41,1061.87 859.38,1063.14 861.09,1064.58"/>
        <lane id=":242653177_0_1" index="1" disallow="tram rail_urban rail rail_electric rail_fast ship" speed="13.89" length="7.70" shape="855.58,1059.42 857.71,1060.27 859.30,1060.54 860.86,1060.88 862.88,1061.92"/>
    </edge>
    <edge id=":242653290_0" function="internal">
        <lane id=":242653290_0_0" index="0" allow="private emergency authority army vip passenger hov taxi bus coach delivery truck trailer motorcycle evehicle custom1 custom2" speed="13.89" length="12.64" shape="897.84,1089.24 901.22,1091.23 903.87,1092.39 906.30,1093.41 909.06,1095.00"/>
    </edge>
    <edge id=":242653290_1" function="internal">
        <lane id=":242653290_1_0" index="0" disallow="tram rail_urban rail rail_electric rail_fast ship" speed="13.89" length="12.42" shape="899.63,1086.58 902.90,1088.59 905.42,1089.81 907.83,1090.77 910.76,1092.01"/>
    </edge>
    <edge id=":243497482_0" function="internal">
        <lane id=":243497482_0_0" index="0" allow="private emergency authority army vip passenger hov taxi bus coach delivery truck trailer motorcycle evehicle custom1 custom2" speed="19.45" length="4.09" shape="844.10,662.75 844.82,663.78 845.34,664.46 845.89,665.13 846.70,666.09"/>
        <lane id=":243497482_0_1" index="1" allow="private emergency authority army vip passenger hov taxi bus coach delivery truck trailer motorcycle evehicle custom1 custom2" speed="19.45" length="4.09" shape="846.74,660.93 847.41,661.89 847.89,662.53 848.40,663.15 849.15,664.04"/>
    </edge>
    <edge id=":243497482_2" function="internal">
        <lane id=":243497482_2_0" index="0" allow="private emergency authority army vip passenger hov taxi bus coach delivery truck trailer motorcycle evehicle custom1 custom2" speed="25.00" length="3.96" shape="849.38,659.12 849.84,660.23 849.79,661.14 849.75,662.05 850.20,663.17"/>
        <lane id=":243497482_2_1" index="1" allow="private emergency authority army vip passenger hov taxi bus coach delivery truck trailer motorcycle evehicle custom1 custom2" speed="25.00" length="3.96" shape="852.01,657.31 852.42,658.35 852.35,659.20 852.27,660.06 852.67,661.11"/>
        <lane id=":243497482_2_2" index="2" allow="private emergency authority army vip passenger hov taxi bus coach delivery truck trailer motorcycle evehicle custom1 custom2" speed="25.00" length="3.96" shape="854.65,655.49 855.01,656.46 854.90,657.27 854.78,658.07 855.14,659.05"/>
    </edge>
    <edge id=":25451918_0" function="internal">
        <lane id=":25451918_0_0" index="0" allow="private emergency authority army vip passenger hov taxi bus coach delivery truck trailer motorcycle evehicle custom1 custom2" speed="19.45" length="5.65" shape="1263.18,1204.32 1262.19,1202.98 1261.38,1202.18 1260.46,1201.47 1259.15,1200.41"/>
    </edge>
    <edge id=":25451918_1" function="internal">
        <lane id=":25451918_1_0" index="0" allow="private emergency authority army vip passenger hov taxi bus coach delivery truck trailer motorcycle evehicle custom1 custom2" speed="25.00" length="3.96" shape="1260.52,1206.10 1257.72,1202.11"/>
        <lane id=":25451918_1_1" index="1" allow="private emergency authority army vip passenger hov taxi bus coach delivery truck trailer motorcycle evehicle custom1 custom2" speed="25.00" length="3.96" shape="1257.86,1207.88 1255.59,1204.64"/>
        <lane id=":25451918_1_2" index="2" allow="private emergency authority army vip passenger hov taxi bus coach delivery truck trailer motorcycle evehicle custom1 custom2" speed="25.00" length="3.96" shape="1255.21,1209.67 1253.46,1207.17"/>
    </edge>
    <edge id=":25455308_0" function="internal">
        <lane id=":25455308_0_0" index="0" allow="private emergency authority army vip passenger hov taxi bus coach delivery truck trailer motorcycle evehicle custom1 custom2" speed="19.45" length="2.99" shape="1289.59,1311.63 1291.32,1314.06"/>
    </edge>
    <edge id=":25455308_1" function="internal">
        <lane id=":25455308_1_0" index="0" allow="private emergency authority army vip passenger hov taxi bus coach delivery truck trailer motorcycle evehicle custom1 custom2" speed="25.00" length="3.00" shape="1292.22,1309.78 1293.94,1312.23"/>
        <lane id=":25455308_1_1" index="1" allow="private emergency authority army vip passenger hov taxi bus coach delivery truck trailer motorcycle evehicle custom1 custom2" speed="25.00" length="3.00" shape="1294.83,1307.93 1296.56,1310.39"/>
        <lane id=":25455308_1_2" index="2" allow="private emergency authority army vip passenger hov taxi bus coach delivery truck trailer motorcycle evehicle custom1 custom2" speed="25.00" length="3.00" shape="1297.45,1306.09 1299.18,1308.55"/>
    </edge>
    <edge id=":440596591_0" function="internal">
        <lane id=":440596591_0_0" index="0" disallow="tram rail_urban rail rail_electric rail_fast ship" speed="16.67" length="8.60" shape="1484.29,1061.14 1485.79,1063.15 1486.21,1065.00 1486.62,1066.84 1488.12,1068.85"/>
        <lane id=":440596591_0_1" index="1" disallow="tram rail_urban rail rail_electric rail_fast ship" speed="16.67" length="8.60" shape="1486.42,1058.75 1487.93,1060.76 1488.34,1062.61 1488.75,1064.46 1490.25,1066.47"/>
        <lane id=":440596591_0_2" index="2" disallow="tram rail_urban rail rail_electric rail_fast ship" speed="16.67" length="8.60" shape="1486.42,1058.75 1492.39,1064.08"/>
        <lane id=":440596591_0_3" index="3" disallow="tram rail_urban rail rail_electric rail_fast ship" speed="16.67" length="8.60" shape="1486.42,1058.75 1488.59,1060.02 1490.47,1060.22 1492.35,1060.43 1494.52,1061.70"/>
    </edge>
    <edge id=":4656921454_0" function="internal">
        <lane id=":4656921454_0_0" index="0" disallow="tram rail_urban rail rail_electric rail_fast ship" speed="16.67" length="7.43" shape="1575.16,1149.62 1577.00,1150.88 1578.54,1151.29 1580.14,1151.65 1582.10,1152.75"/>