<?xml version="1.0" encoding="UTF-8"?>

<!-- generated on 2023-07-17 11:59:12 by Eclipse SUMO netconvert Version 1.17.0
<configuration xmlns:xsi="http://www.w3.org/2001/XMLSchema-instance" xsi:noNamespaceSchemaLocation="http://sumo.dlr.de/xsd/netconvertConfiguration.xsd">

    <input>
        <sumo-net-file value="osm.net.xml.gz"/>
    </input>

    <output>
        <output-file value="osm.net.xml"/>
        <output.street-names value="true"/>
    </output>

    <processing>
        <geometry.min-radius.fix.railways value="false"/>
        <geometry.max-grade.fix value="false"/>
        <offset.disable-normalization value="true"/>
        <lefthand value="1"/>
    </processing>

    <junctions>
        <no-turnarounds value="true"/>
        <junctions.corner-detail value="5"/>
        <junctions.limit-turn-speed value="5.50"/>
        <rectangular-lane-cut value="0"/>
    </junctions>

    <pedestrian>
        <walkingareas value="0"/>
    </pedestrian>

</configuration>
-->

<net version="1.16" junctionCornerDetail="5" lefthand="true" limitTurnSpeed="5.50" xmlns:xsi="http://www.w3.org/2001/XMLSchema-instance" xsi:noNamespaceSchemaLocation="http://sumo.dlr.de/xsd/net_file.xsd">

    <location netOffset="-376527.64,-145243.09" convBoundary="0.00,0.00,512.43,490.38" origBoundary="103.890164,1.313811,103.894770,1.318246" projParameter="+proj=utm +zone=48 +ellps=WGS84 +datum=WGS84 +units=m +no_defs"/>

    <type id="highway.bridleway" priority="1" numLanes="1" speed="2.78" allow="pedestrian" oneway="1" width="2.00"/>
    <type id="highway.bus_guideway" priority="1" numLanes="1" speed="27.78" allow="bus" oneway="1"/>
    <type id="highway.cycleway" priority="1" numLanes="1" speed="5.56" allow="bicycle" oneway="0" width="1.00"/>
    <type id="highway.footway" priority="1" numLanes="1" speed="2.78" allow="pedestrian" oneway="1" width="2.00"/>
    <type id="highway.ford" priority="1" numLanes="1" speed="2.78" allow="army" oneway="0"/>
    <type id="highway.living_street" priority="2" numLanes="1" speed="2.78" disallow="tram rail_urban rail rail_electric rail_fast ship" oneway="0"/>
    <type id="highway.motorway" priority="14" numLanes="2" speed="39.44" allow="private emergency authority army vip passenger hov taxi bus coach delivery truck trailer motorcycle evehicle custom1 custom2" oneway="1"/>
    <type id="highway.motorway_link" priority="9" numLanes="1" speed="22.22" allow="private emergency authority army vip passenger hov taxi bus coach delivery truck trailer motorcycle evehicle custom1 custom2" oneway="1"/>
    <type id="highway.path" priority="1" numLanes="1" speed="5.56" allow="pedestrian bicycle" oneway="0" width="2.00"/>
    <type id="highway.pedestrian" priority="1" numLanes="1" speed="2.78" allow="pedestrian" oneway="1" width="2.00"/>
    <type id="highway.primary" priority="12" numLanes="2" speed="27.78" disallow="tram rail_urban rail rail_electric rail_fast ship" oneway="0"/>
    <type id="highway.primary_link" priority="7" numLanes="1" speed="22.22" disallow="tram rail_urban rail rail_electric rail_fast ship" oneway="0"/>
    <type id="highway.raceway" priority="15" numLanes="2" speed="83.33" allow="vip" oneway="0"/>
    <type id="highway.residential" priority="3" numLanes="1" speed="13.89" disallow="tram rail_urban rail rail_electric rail_fast ship" oneway="0"/>
    <type id="highway.secondary" priority="11" numLanes="1" speed="27.78" disallow="tram rail_urban rail rail_electric rail_fast ship" oneway="0"/>
    <type id="highway.secondary_link" priority="6" numLanes="1" speed="22.22" disallow="tram rail_urban rail rail_electric rail_fast ship" oneway="0"/>
    <type id="highway.service" priority="1" numLanes="1" speed="5.56" allow="pedestrian delivery bicycle" oneway="0"/>
    <type id="highway.stairs" priority="1" numLanes="1" speed="1.39" allow="pedestrian" oneway="1" width="2.00"/>
    <type id="highway.step" priority="1" numLanes="1" speed="1.39" allow="pedestrian" oneway="1" width="2.00"/>
    <type id="highway.steps" priority="1" numLanes="1" speed="1.39" allow="pedestrian" oneway="1" width="2.00"/>
    <type id="highway.tertiary" priority="10" numLanes="1" speed="22.22" disallow="tram rail_urban rail rail_electric rail_fast ship" oneway="0"/>
    <type id="highway.tertiary_link" priority="5" numLanes="1" speed="22.22" disallow="tram rail_urban rail rail_electric rail_fast ship" oneway="0"/>
    <type id="highway.track" priority="1" numLanes="1" speed="5.56" allow="pedestrian motorcycle moped bicycle" oneway="0"/>
    <type id="highway.trunk" priority="13" numLanes="2" speed="27.78" disallow="pedestrian bicycle tram rail_urban rail rail_electric rail_fast ship" oneway="0"/>
    <type id="highway.trunk_link" priority="8" numLanes="1" speed="22.22" disallow="pedestrian bicycle tram rail_urban rail rail_electric rail_fast ship" oneway="0"/>
    <type id="highway.unclassified" priority="4" numLanes="1" speed="13.89" disallow="tram rail_urban rail rail_electric rail_fast ship" oneway="0"/>
    <type id="highway.unsurfaced" priority="1" numLanes="1" speed="8.33" disallow="tram rail_urban rail rail_electric rail_fast ship" oneway="0"/>
    <type id="railway.highspeed" priority="21" numLanes="1" speed="69.44" allow="rail_fast" oneway="1"/>
    <type id="railway.light_rail" priority="19" numLanes="1" speed="27.78" allow="rail_urban" oneway="1"/>
    <type id="railway.preserved" priority="16" numLanes="1" speed="27.78" allow="rail" oneway="1"/>
    <type id="railway.rail" priority="20" numLanes="1" speed="44.44" allow="rail" oneway="1"/>
    <type id="railway.subway" priority="18" numLanes="1" speed="27.78" allow="rail_urban" oneway="1"/>
    <type id="railway.tram" priority="17" numLanes="1" speed="13.89" allow="tram" oneway="1"/>

    <edge id=":11007299450_0" function="internal">
        <lane id=":11007299450_0_0" index="0" disallow="tram rail_urban rail rail_electric rail_fast ship" speed="3.65" length="4.67" shape="0.22,256.23 -1.08,256.85 -1.58,257.59 -1.30,258.44 -0.22,259.39"/>
    </edge>
    <edge id=":1294427461_0" function="internal">
        <lane id=":1294427461_0_0" index="0" disallow="tram rail_urban rail rail_electric rail_fast ship" speed="14.99" length="17.34" shape="240.19,387.17 241.59,382.28 243.18,379.07 245.64,376.47 249.69,373.39"/>
        <lane id=":1294427461_0_1" index="1" disallow="tram rail_urban rail rail_electric rail_fast ship" speed="15.28" length="18.86" shape="237.09,386.38 238.58,381.04 240.23,377.50 242.83,374.61 247.21,371.24"/>
    </edge>
    <edge id=":1294427461_2" function="internal">
        <lane id=":1294427461_2_0" index="0" disallow="tram rail_urban rail rail_electric rail_fast ship" speed="16.67" length="18.25" shape="237.09,386.38 242.66,368.91"/>
        <lane id=":1294427461_2_1" index="1" disallow="tram rail_urban rail rail_electric rail_fast ship" speed="16.67" length="18.25" shape="233.99,385.59 239.54,368.20"/>
        <lane id=":1294427461_2_2" index="2" disallow="tram rail_urban rail rail_electric rail_fast ship" speed="16.67" length="18.25" shape="230.89,384.80 236.42,367.49"/>
    </edge>
    <edge id=":1830096063_0" function="internal">
        <lane id=":1830096063_0_0" index="0" disallow="tram rail_urban rail rail_electric rail_fast ship" speed="13.89" length="8.18" shape="276.86,142.36 274.53,141.58 273.05,140.69 271.57,139.82 269.24,139.08"/>
        <lane id=":1830096063_0_1" index="1" disallow="tram rail_urban rail rail_electric rail_fast ship" speed="13.89" length="8.18" shape="276.16,145.48 273.85,144.71 272.38,143.82 270.91,142.95 268.59,142.22"/>
        <lane id=":1830096063_0_2" index="2" disallow="tram rail_urban rail rail_electric rail_fast ship" speed="13.89" length="8.18" shape="275.46,148.60 273.16,147.83 271.71,146.95 270.25,146.08 267.95,145.35"/>
        <lane id=":1830096063_0_3" index="3" disallow="tram rail_urban rail rail_electric rail_fast ship" speed="13.89" length="8.18" shape="274.75,151.73 272.48,150.96 271.03,150.08 269.59,149.21 267.30,148.48"/>
        <lane id=":1830096063_0_4" index="4" disallow="tram rail_urban rail rail_electric rail_fast ship" speed="13.89" length="8.18" shape="274.05,154.85 271.79,154.08 270.36,153.21 268.92,152.34 266.65,151.62"/>
        <lane id=":1830096063_0_5" index="5" disallow="tram rail_urban rail rail_electric rail_fast ship" speed="13.89" length="8.18" shape="273.35,157.97 271.11,157.21 269.69,156.34 268.26,155.47 266.01,154.75"/>
        <lane id=":1830096063_0_6" index="6" disallow="tram rail_urban rail rail_electric rail_fast ship" speed="13.89" length="8.18" shape="273.35,157.97 271.01,157.70 269.36,157.90 267.71,158.12 265.36,157.89"/>
    </edge>
    <edge id=":1830096070_0" function="internal">
        <lane id=":1830096070_0_0" index="0" allow="bus bicycle" speed="16.67" length="8.16" shape="240.47,247.28 240.35,244.86 240.22,243.20 240.00,241.56 239.62,239.17"/>
    </edge>
    <edge id=":1830096070_1" function="internal">
        <lane id=":1830096070_1_0" index="0" disallow="tram rail_urban rail rail_electric rail_fast ship" speed="16.67" length="7.92" shape="226.99,241.23 226.82,243.29 225.89,244.61 224.89,245.94 224.49,248.03"/>
        <lane id=":1830096070_1_1" index="1" disallow="tram rail_urban rail rail_electric rail_fast ship" speed="16.67" length="7.92" shape="230.14,240.72 229.99,242.88 229.08,244.28 228.08,245.69 227.69,247.88"/>
        <lane id=":1830096070_1_2" index="2" disallow="tram rail_urban rail rail_electric rail_fast ship" speed="16.67" length="7.92" shape="233.30,240.20 233.17,242.47 232.26,243.95 231.27,245.43 230.88,247.73"/>
        <lane id=":1830096070_1_3" index="3" disallow="tram rail_urban rail rail_electric rail_fast ship" speed="16.67" length="7.92" shape="236.46,239.68 236.34,242.05 235.45,243.61 234.46,245.18 234.08,247.58"/>
        <lane id=":1830096070_1_4" index="4" disallow="tram rail_urban rail rail_electric rail_fast ship" speed="16.67" length="7.92" shape="236.46,239.68 236.83,241.97 237.04,243.54 237.16,245.12 237.28,247.43"/>
    </edge>
    <edge id=":2426217331_0" function="internal">
        <lane id=":2426217331_0_0" index="0" disallow="tram rail_urban rail rail_electric rail_fast ship" speed="12.36" length="12.13" shape="269.64,360.00 272.19,358.37 273.99,357.11 275.88,356.40 278.74,356.47"/>
        <lane id=":2426217331_0_1" index="1" disallow="tram rail_urban rail rail_electric rail_fast ship" speed="13.50" length="12.13" shape="268.12,357.18 271.21,355.28 273.42,353.88 275.74,353.17 279.19,353.30"/>
        <lane id=":2426217331_0_2" index="2" disallow="tram rail_urban rail rail_electric rail_fast ship" speed="14.56" length="12.13" shape="268.12,357.18 271.49,354.59 273.61,352.10 275.87,350.38 279.65,350.14"/>
    </edge>
    <edge id=":2426217331_3" function="internal">
        <lane id=":2426217331_3_0" index="0" disallow="tram rail_urban rail rail_electric rail_fast ship" speed="16.67" length="11.82" shape="267.42,353.26 270.90,353.50 273.31,353.28 275.72,353.06 279.19,353.30"/>
        <lane id=":2426217331_3_1" index="1" disallow="tram rail_urban rail rail_electric rail_fast ship" speed="16.67" length="11.82" shape="267.87,350.09 271.35,350.33 273.76,350.11 276.17,349.89 279.65,350.14"/>
        <lane id=":2426217331_3_2" index="2" disallow="tram rail_urban rail rail_electric rail_fast ship" speed="16.67" length="11.82" shape="268.32,346.93 271.80,347.16 274.22,346.94 276.63,346.72 280.11,346.97"/>
        <lane id=":2426217331_3_3" index="3" disallow="tram rail_urban rail rail_electric rail_fast ship" speed="16.67" length="11.82" shape="268.77,343.76 272.26,344.00 274.67,343.77 277.08,343.56 280.57,343.80"/>
    </edge>
    <edge id=":245373443_0" function="internal">
        <lane id=":245373443_0_0" index="0" disallow="tram rail_urban rail rail_electric rail_fast ship" speed="13.89" length="16.04" shape="440.82,51.61 440.28,67.57"/>
        <lane id=":245373443_0_1" index="1" disallow="tram rail_urban rail rail_electric rail_fast ship" speed="13.89" length="16.04" shape="444.02,51.71 443.47,67.81"/>
    </edge>
    <edge id=":245373443_2" function="internal">
        <lane id=":245373443_2_0" index="0" disallow="tram rail_urban rail rail_electric rail_fast ship" speed="13.61" length="15.92" shape="435.07,53.06 437.28,55.89 439.06,58.90 440.15,62.61 440.28,67.57"/>
    </edge>
    <edge id=":3738980528_0" function="internal">
        <lane id=":3738980528_0_0" index="0" allow="bus bicycle" speed="3.65" length="4.67" shape="196.15,490.09 196.71,491.41 197.43,491.95 198.29,491.71 199.29,490.67"/>
    </edge>
    <edge id=":4600173917_0" function="internal">
        <lane id=":4600173917_0_0" index="0" disallow="tram rail_urban rail rail_electric rail_fast ship" speed="13.89" length="17.51" shape="452.08,163.30 450.93,159.82 449.74,156.22 448.89,151.89 448.78,146.25"/>
    </edge>
    <edge id=":4600173917_1" function="internal">
        <lane id=":4600173917_1_0" index="0" disallow="tram rail_urban rail rail_electric rail_fast ship" speed="13.89" length="17.54" shape="447.60,163.76 448.78,146.25"/>
        <lane id=":4600173917_1_1" index="1" disallow="tram rail_urban rail rail_electric rail_fast ship" speed="13.89" length="17.54" shape="444.41,163.54 445.59,146.06"/>
    </edge>
    <edge id=":4600173921_0" function="internal">
        <lane id=":4600173921_0_0" index="0" disallow="tram rail_urban rail rail_electric rail_fast ship" speed="9.92" length="8.80" shape="466.13,183.12 463.71,182.43 462.25,181.42 461.11,179.91 459.68,177.72"/>
    </edge>
    <edge id=":4600173921_1" function="internal">
        <lane id=":4600173921_1_0" index="0" disallow="tram rail_urban rail rail_electric rail_fast ship" speed="13.89" length="8.72" shape="466.13,183.12 457.60,181.40"/>
        <lane id=":4600173921_1_1" index="1" disallow="tram rail_urban rail rail_electric rail_fast ship" speed="13.89" length="8.72" shape="465.51,186.26 456.98,184.54"/>
        <lane id=":4600173921_1_2" index="2" disallow="tram rail_urban rail rail_electric rail_fast ship" speed="13.89" length="8.72" shape="464.90,189.40 456.36,187.68"/>
        <lane id=":4600173921_1_3" index="3" disallow="tram rail_urban rail rail_electric rail_fast ship" speed="13.89" length="8.72" shape="464.29,192.54 455.73,190.82"/>
        <lane id=":4600173921_1_4" index="4" disallow="tram rail_urban rail rail_electric rail_fast ship" speed="13.89" length="8.72" shape="463.67,195.69 455.11,193.96"/>
    </edge>
    <edge id=":4600173922_0" function="internal">
        <lane id=":4600173922_0_0" index="0" disallow="tram rail_urban rail rail_electric rail_fast ship" speed="13.89" length="14.76" shape="413.41,168.06 410.21,169.16 407.33,170.03 404.08,170.37 399.78,169.86"/>
        <lane id=":4600173922_0_1" index="1" disallow="tram rail_urban rail rail_electric rail_fast ship" speed="13.89" length="14.76" shape="413.41,168.06 410.21,169.67 407.26,171.65 403.82,173.07 399.14,172.99"/>
    </edge>
    <edge id=":4600173922_2" function="internal">
        <lane id=":4600173922_2_0" index="0" disallow="tram rail_urban rail rail_electric rail_fast ship" speed="13.89" length="13.99" shape="413.52,173.23 399.78,169.86"/>
        <lane id=":4600173922_2_1" index="1" disallow="tram rail_urban rail rail_electric rail_fast ship" speed="13.89" length="13.99" shape="412.80,176.35 399.14,172.99"/>
        <lane id=":4600173922_2_2" index="2" disallow="tram rail_urban rail rail_electric rail_fast ship" speed="13.89" length="13.99" shape="412.09,179.47 398.50,176.13"/>
        <lane id=":4600173922_2_3" index="3" disallow="tram rail_urban rail rail_electric rail_fast ship" speed="13.89" length="13.99" shape="411.37,182.59 397.86,179.26"/>
        <lane id=":4600173922_2_4" index="4" disallow="tram rail_urban rail rail_electric rail_fast ship" speed="13.89" length="13.99" shape="410.65,185.71 397.22,182.40"/>
    </edge>
    <edge id=":4600173928_0" function="internal">
        <lane id=":4600173928_0_0" index="0" disallow="tram rail_urban rail rail_electric rail_fast ship" speed="13.89" length="17.35" shape="434.61,142.80 433.72,148.27 432.17,152.32 430.19,155.55 428.01,158.52"/>
    </edge>
    <edge id=":4600173928_1" function="internal">
        <lane id=":4600173928_1_0" index="0" disallow="tram rail_urban rail rail_electric rail_fast ship" speed="13.89" length="17.40" shape="434.61,142.80 433.04,160.10"/>
        <lane id=":4600173928_1_1" index="1" disallow="tram rail_urban rail rail_electric rail_fast ship" speed="13.89" length="17.40" shape="437.80,143.04 436.22,160.39"/>
    </edge>
    <edge id=":4600173929_0" function="internal">
        <lane id=":4600173929_0_0" index="0" disallow="tram rail_urban rail rail_electric rail_fast ship" speed="16.67" length="3.19" shape="215.52,355.03 215.39,355.93 215.38,356.56 215.37,357.18 215.22,358.08"/>
        <lane id=":4600173929_0_1" index="1" disallow="tram rail_urban rail rail_electric rail_fast ship" speed="16.67" length="3.19" shape="218.65,355.67 218.52,356.59 218.51,357.24 218.49,357.88 218.33,358.80"/>
        <lane id=":4600173929_0_2" index="2" disallow="tram rail_urban rail rail_electric rail_fast ship" speed="16.67" length="3.19" shape="221.79,356.31 221.65,357.25 221.64,357.91 221.61,358.57 221.45,359.51"/>
        <lane id=":4600173929_0_3" index="3" disallow="tram rail_urban rail rail_electric rail_fast ship" speed="16.67" length="3.19" shape="224.92,356.95 224.78,357.92 224.76,358.59 224.74,359.27 224.57,360.23"/>
    </edge>
    <edge id=":4600173929_4" function="internal">
        <lane id=":4600173929_4_0" index="0" allow="bus bicycle" speed="3.65" length="1.44" shape="224.92,356.95 225.47,358.28"/>
    </edge>
    <edge id=":4600173929_10" function="internal">
        <lane id=":4600173929_10_0" index="0" allow="bus bicycle" speed="3.65" length="3.23" shape="225.47,358.28 226.17,358.83 227.04,358.60 228.06,357.59"/>
    </edge>
    <edge id=":4600173929_5" function="internal">
        <lane id=":4600173929_5_0" index="0" allow="bus bicycle" speed="16.67" length="3.39" shape="227.69,360.95 227.86,359.96 227.89,359.27 227.91,358.58 228.06,357.59"/>
    </edge>
    <edge id=":4600173929_6" function="internal">
        <lane id=":4600173929_6_0" index="0" allow="bus bicycle" speed="3.65" length="1.44" shape="227.69,360.95 227.18,359.60"/>
    </edge>
    <edge id=":4600173929_11" function="internal">
        <lane id=":4600173929_11_0" index="0" allow="bus bicycle" speed="3.65" length="3.23" shape="227.18,359.60 226.49,359.03 225.62,359.24 224.57,360.23"/>
    </edge>
    <edge id=":4600173929_7" function="internal">
        <lane id=":4600173929_7_0" index="0" disallow="tram rail_urban rail rail_electric rail_fast ship" speed="8.38" length="9.28" shape="212.15,350.67 213.76,352.72 214.81,354.64 215.30,356.43 215.22,358.08"/>
        <lane id=":4600173929_7_1" index="1" disallow="tram rail_urban rail rail_electric rail_fast ship" speed="9.26" length="9.28" shape="212.15,350.67 213.43,352.12 215.58,354.65 217.56,357.22 218.33,358.80"/>
    </edge>
    <edge id=":4600173929_9" function="internal">
        <lane id=":4600173929_9_0" index="0" allow="bus bicycle" speed="7.99" length="21.09" shape="212.15,350.67 217.13,355.82 221.95,359.59 225.84,360.64 228.06,357.59"/>
    </edge>
    <edge id=":4600173933_0" function="internal">
        <lane id=":4600173933_0_0" index="0" disallow="tram rail_urban rail rail_electric rail_fast ship" speed="13.89" length="15.68" shape="197.63,339.55 202.27,341.06 205.42,343.15 207.80,345.65 210.11,348.38"/>
    </edge>
    <edge id=":4600173933_1" function="internal">
        <lane id=":4600173933_1_0" index="0" disallow="tram rail_urban rail rail_electric rail_fast ship" speed="13.89" length="13.39" shape="197.63,339.55 210.51,342.82"/>
        <lane id=":4600173933_1_1" index="1" disallow="tram rail_urban rail rail_electric rail_fast ship" speed="13.89" length="13.39" shape="198.28,336.42 211.23,339.71"/>
        <lane id=":4600173933_1_2" index="2" disallow="tram rail_urban rail rail_electric rail_fast ship" speed="13.89" length="13.39" shape="198.93,333.29 211.94,336.59"/>
        <lane id=":4600173933_1_3" index="3" disallow="tram rail_urban rail rail_electric rail_fast ship" speed="13.89" length="13.39" shape="199.58,330.15 212.66,333.47"/>
    </edge>
    <edge id=":4689322435_0" function="internal">
        <lane id=":4689322435_0_0" index="0" disallow="tram rail_urban rail rail_electric rail_fast ship" speed="13.89" length="8.21" shape="330.89,155.67 328.59,154.94 327.12,154.08 325.65,153.22 323.35,152.50"/>
        <lane id=":4689322435_0_1" index="1" disallow="tram rail_urban rail rail_electric rail_fast ship" speed="13.89" length="8.21" shape="330.24,158.81 327.94,158.07 326.48,157.21 325.02,156.35 322.71,155.63"/>
        <lane id=":4689322435_0_2" index="2" disallow="tram rail_urban rail rail_electric rail_fast ship" speed="13.89" length="8.21" shape="329.60,161.94 327.30,161.21 325.84,160.35 324.38,159.49 322.08,158.77"/>
        <lane id=":4689322435_0_3" index="3" disallow="tram rail_urban rail rail_electric rail_fast ship" speed="13.89" length="8.21" shape="328.95,165.07 326.65,164.34 325.20,163.48 323.74,162.63 321.44,161.91"/>
        <lane id=":4689322435_0_4" index="4" disallow="tram rail_urban rail rail_electric rail_fast ship" speed="13.89" length="8.21" shape="328.30,168.21 326.01,167.48 324.56,166.62 323.10,165.76 320.81,165.04"/>
        <lane id=":4689322435_0_5" index="5" disallow="tram rail_urban rail rail_electric rail_fast ship" speed="13.89" length="8.21" shape="328.30,168.21 325.91,167.97 324.24,168.19 322.56,168.41 320.17,168.18"/>
    </edge>
    <edge id=":592099706_0" function="internal">
        <lane id=":592099706_0_0" index="0" disallow="tram rail_urban rail rail_electric rail_fast ship" speed="13.89" length="11.15" shape="90.96,99.12 80.02,96.98"/>
        <lane id=":592099706_0_1" index="1" disallow="tram rail_urban rail rail_electric rail_fast ship" speed="13.89" length="11.15" shape="90.34,102.26 79.41,100.13"/>
        <lane id=":592099706_0_2" index="2" disallow="tram rail_urban rail rail_electric rail_fast ship" speed="13.89" length="11.15" shape="89.73,105.40 78.79,103.27"/>
        <lane id=":592099706_0_3" index="3" disallow="tram rail_urban rail rail_electric rail_fast ship" speed="13.89" length="11.15" shape="89.12,108.54 78.18,106.41"/>
        <lane id=":592099706_0_4" index="4" disallow="tram rail_urban rail rail_electric rail_fast ship" speed="13.89" length="11.15" shape="88.51,111.68 77.57,109.55"/>
    </edge>
    <edge id=":592099706_5" function="internal">
        <lane id=":592099706_5_0" index="0" allow="bus bicycle" speed="3.65" length="1.44" shape="88.51,111.68 87.18,112.24"/>
    </edge>
    <edge id=":592099706_12" function="internal">
        <lane id=":592099706_12_0" index="0" allow="bus bicycle" speed="3.65" length="3.23" shape="87.18,112.24 86.63,112.95 86.87,113.81 87.90,114.82"/>
    </edge>
    <edge id=":592099706_6" function="internal">
        <lane id=":592099706_6_0" index="0" allow="bus bicycle" speed="6.51" length="9.01" shape="81.33,119.23 82.16,116.90 83.52,115.39 85.44,114.70 87.90,114.82"/>
    </edge>
    <edge id=":592099706_7" function="internal">
        <lane id=":592099706_7_0" index="0" disallow="tram rail_urban rail rail_electric rail_fast ship" speed="8.81" length="17.48" shape="81.33,119.23 82.30,112.65 82.20,107.80 81.03,104.67 78.79,103.27"/>
        <lane id=":592099706_7_1" index="1" disallow="tram rail_urban rail rail_electric rail_fast ship" speed="8.08" length="14.55" shape="81.33,119.23 82.02,114.03 81.73,110.15 80.45,107.61 78.18,106.41"/>
        <lane id=":592099706_7_2" index="2" disallow="tram rail_urban rail rail_electric rail_fast ship" speed="7.30" length="11.70" shape="81.33,119.23 81.75,115.40 81.26,112.51 79.86,110.56 77.57,109.55"/>
    </edge>
    <edge id=":592099706_10" function="internal">
        <lane id=":592099706_10_0" index="0" allow="bus bicycle" speed="13.89" length="11.15" shape="76.95,112.69 87.90,114.82"/>
    </edge>
    <edge id=":592099706_11" function="internal">
        <lane id=":592099706_11_0" index="0" allow="bus bicycle" speed="3.65" length="1.44" shape="76.95,112.69 78.28,112.13"/>
    </edge>
    <edge id=":592099706_13" function="internal">
        <lane id=":592099706_13_0" index="0" allow="bus bicycle" speed="3.65" length="3.23" shape="78.28,112.13 78.83,111.42 78.59,110.56 77.57,109.55"/>
    </edge>
    <edge id=":592099714_0" function="internal">
        <lane id=":592099714_0_0" index="0" allow="bus bicycle" speed="6.53" length="8.89" shape="53.86,305.82 51.55,305.03 50.03,303.70 49.29,301.82 49.32,299.41"/>
    </edge>
    <edge id=":592099714_1" function="internal">
        <lane id=":592099714_1_0" index="0" allow="bus bicycle" speed="13.89" length="10.89" shape="53.86,305.82 43.14,303.89"/>
    </edge>
    <edge id=":592099714_2" function="internal">
        <lane id=":592099714_2_0" index="0" allow="bus bicycle" speed="3.65" length="1.44" shape="53.86,305.82 52.54,306.39"/>
    </edge>
    <edge id=":592099714_9" function="internal">
        <lane id=":592099714_9_0" index="0" allow="bus bicycle" speed="3.65" length="3.23" shape="52.54,306.39 52.00,307.11 52.25,307.97 53.29,308.97"/>
    </edge>
    <edge id=":592099714_3" function="internal">
        <lane id=":592099714_3_0" index="0" disallow="tram rail_urban rail rail_electric rail_fast ship" speed="13.89" length="10.89" shape="40.89,316.49 51.60,318.41"/>
        <lane id=":592099714_3_1" index="1" disallow="tram rail_urban rail rail_electric rail_fast ship" speed="13.89" length="10.89" shape="41.45,313.34 52.16,315.27"/>
        <lane id=":592099714_3_2" index="2" disallow="tram rail_urban rail rail_electric rail_fast ship" speed="13.89" length="10.89" shape="42.01,310.19 52.73,312.12"/>
        <lane id=":592099714_3_3" index="3" disallow="tram rail_urban rail rail_electric rail_fast ship" speed="13.89" length="10.89" shape="42.57,307.04 53.29,308.97"/>
    </edge>
    <edge id=":592099714_7" function="internal">
        <lane id=":592099714_7_0" index="0" disallow="tram rail_urban rail rail_electric rail_fast ship" speed="7.21" length="2.44" shape="42.57,307.04 45.02,306.93"/>
    </edge>
    <edge id=":592099714_8" function="internal">
        <lane id=":592099714_8_0" index="0" allow="bus bicycle" speed="3.65" length="1.44" shape="42.57,307.04 43.90,306.47"/>
    </edge>
    <edge id=":592099714_10" function="internal">
        <lane id=":592099714_10_0" index="0" disallow="tram rail_urban rail rail_electric rail_fast ship" speed="7.21" length="9.05" shape="45.02,306.93 46.95,305.62 48.39,303.11 49.32,299.41"/>
    </edge>
    <edge id=":592099714_11" function="internal">
        <lane id=":592099714_11_0" index="0" allow="bus bicycle" speed="3.65" length="3.23" shape="43.90,306.47 44.43,305.75 44.18,304.89 43.14,303.89"/>
    </edge>
    <edge id=":592099737_0" function="internal">
        <lane id=":592099737_0_0" index="0" disallow="tram rail_urban rail rail_electric rail_fast ship" speed="13.89" length="11.04" shape="156.68,112.01 145.80,109.83"/>
        <lane id=":592099737_0_1" index="1" disallow="tram rail_urban rail rail_electric rail_fast ship" speed="13.89" length="11.04" shape="156.04,115.14 145.18,112.97"/>
        <lane id=":592099737_0_2" index="2" disallow="tram rail_urban rail rail_electric rail_fast ship" speed="13.89" length="11.04" shape="155.40,118.28 144.57,116.11"/>
        <lane id=":592099737_0_3" index="3" disallow="tram rail_urban rail rail_electric rail_fast ship" speed="13.89" length="11.04" shape="154.76,121.41 143.96,119.25"/>
        <lane id=":592099737_0_4" index="4" disallow="tram rail_urban rail rail_electric rail_fast ship" speed="13.89" length="11.04" shape="154.11,124.55 143.34,122.39"/>
    </edge>
    <edge id=":592099737_5" function="internal">
        <lane id=":592099737_5_0" index="0" disallow="tram rail_urban rail rail_electric rail_fast ship" speed="7.18" length="2.52" shape="154.11,124.55 151.59,124.59"/>
    </edge>
    <edge id=":592099737_6" function="internal">
        <lane id=":592099737_6_0" index="0" allow="bus bicycle" speed="3.65" length="1.44" shape="154.11,124.55 152.78,125.09"/>
    </edge>
    <edge id=":592099737_10" function="internal">
        <lane id=":592099737_10_0" index="0" disallow="tram rail_urban rail rail_electric rail_fast ship" speed="7.18" length="9.08" shape="151.59,124.59 149.60,125.85 148.12,128.33 147.16,132.04"/>
    </edge>
    <edge id=":592099737_11" function="internal">
        <lane id=":592099737_11_0" index="0" allow="bus bicycle" speed="3.65" length="3.23" shape="152.78,125.09 152.22,125.79 152.46,126.66 153.47,127.68"/>
    </edge>
    <edge id=":592099737_7" function="internal">
        <lane id=":592099737_7_0" index="0" allow="bus bicycle" speed="6.54" length="8.92" shape="142.73,125.53 145.00,126.33 146.49,127.68 147.22,129.58 147.16,132.04"/>
    </edge>
    <edge id=":592099737_8" function="internal">
        <lane id=":592099737_8_0" index="0" allow="bus bicycle" speed="13.89" length="10.96" shape="142.73,125.53 153.47,127.68"/>
    </edge>
    <edge id=":592099737_9" function="internal">
        <lane id=":592099737_9_0" index="0" allow="bus bicycle" speed="3.65" length="1.44" shape="142.73,125.53 144.06,124.98"/>
    </edge>
    <edge id=":592099737_12" function="internal">
        <lane id=":592099737_12_0" index="0" allow="bus bicycle" speed="3.65" length="3.23" shape="144.06,124.98 144.60,124.27 144.37,123.41 143.34,122.39"/>
    </edge>
    <edge id=":592099744_0" function="internal">