<?xml version="1.0" encoding="UTF-8"?>

<!-- generated on 2023-07-17 16:10:13 by Eclipse SUMO netconvert Version 1.17.0
<configuration xmlns:xsi="http://www.w3.org/2001/XMLSchema-instance" xsi:noNamespaceSchemaLocation="http://sumo.dlr.de/xsd/netconvertConfiguration.xsd">

    <input>
        <sumo-net-file value="osm.net.xml.gz"/>
    </input>

    <output>
        <output-file value="osm.net.xml"/>
        <output.street-names value="true"/>
    </output>

    <processing>
        <geometry.min-radius.fix.railways value="false"/>
        <geometry.max-grade.fix value="false"/>
        <offset.disable-normalization value="true"/>
        <lefthand value="1"/>
    </processing>

    <junctions>
        <no-turnarounds value="true"/>
        <junctions.corner-detail value="5"/>
        <junctions.limit-turn-speed value="5.50"/>
        <rectangular-lane-cut value="0"/>
    </junctions>

    <pedestrian>
        <walkingareas value="0"/>
    </pedestrian>

</configuration>
-->

<net version="1.16" junctionCornerDetail="5" lefthand="true" limitTurnSpeed="5.50" xmlns:xsi="http://www.w3.org/2001/XMLSchema-instance" xsi:noNamespaceSchemaLocation="http://sumo.dlr.de/xsd/net_file.xsd">

    <location netOffset="-372072.77,-145599.67" convBoundary="0.00,0.00,780.19,628.46" origBoundary="103.850125,1.317018,103.857135,1.322704" projParameter="+proj=utm +zone=48 +ellps=WGS84 +datum=WGS84 +units=m +no_defs"/>

    <type id="highway.bridleway" priority="1" numLanes="1" speed="2.78" allow="pedestrian" oneway="1" width="2.00"/>
    <type id="highway.bus_guideway" priority="1" numLanes="1" speed="27.78" allow="bus" oneway="1"/>
    <type id="highway.cycleway" priority="1" numLanes="1" speed="5.56" allow="bicycle" oneway="0" width="1.00"/>
    <type id="highway.footway" priority="1" numLanes="1" speed="2.78" allow="pedestrian" oneway="1" width="2.00"/>
    <type id="highway.ford" priority="1" numLanes="1" speed="2.78" allow="army" oneway="0"/>
    <type id="highway.living_street" priority="2" numLanes="1" speed="2.78" disallow="tram rail_urban rail rail_electric rail_fast ship" oneway="0"/>
    <type id="highway.motorway" priority="14" numLanes="2" speed="39.44" allow="private emergency authority army vip passenger hov taxi bus coach delivery truck trailer motorcycle evehicle custom1 custom2" oneway="1"/>
    <type id="highway.motorway_link" priority="9" numLanes="1" speed="22.22" allow="private emergency authority army vip passenger hov taxi bus coach delivery truck trailer motorcycle evehicle custom1 custom2" oneway="1"/>
    <type id="highway.path" priority="1" numLanes="1" speed="5.56" allow="pedestrian bicycle" oneway="0" width="2.00"/>
    <type id="highway.pedestrian" priority="1" numLanes="1" speed="2.78" allow="pedestrian" oneway="1" width="2.00"/>
    <type id="highway.primary" priority="12" numLanes="2" speed="27.78" disallow="tram rail_urban rail rail_electric rail_fast ship" oneway="0"/>
    <type id="highway.primary_link" priority="7" numLanes="1" speed="22.22" disallow="tram rail_urban rail rail_electric rail_fast ship" oneway="0"/>
    <type id="highway.raceway" priority="15" numLanes="2" speed="83.33" allow="vip" oneway="0"/>
    <type id="highway.residential" priority="3" numLanes="1" speed="13.89" disallow="tram rail_urban rail rail_electric rail_fast ship" oneway="0"/>
    <type id="highway.secondary" priority="11" numLanes="1" speed="27.78" disallow="tram rail_urban rail rail_electric rail_fast ship" oneway="0"/>
    <type id="highway.secondary_link" priority="6" numLanes="1" speed="22.22" disallow="tram rail_urban rail rail_electric rail_fast ship" oneway="0"/>
    <type id="highway.service" priority="1" numLanes="1" speed="5.56" allow="pedestrian delivery bicycle" oneway="0"/>
    <type id="highway.stairs" priority="1" numLanes="1" speed="1.39" allow="pedestrian" oneway="1" width="2.00"/>
    <type id="highway.step" priority="1" numLanes="1" speed="1.39" allow="pedestrian" oneway="1" width="2.00"/>
    <type id="highway.steps" priority="1" numLanes="1" speed="1.39" allow="pedestrian" oneway="1" width="2.00"/>
    <type id="highway.tertiary" priority="10" numLanes="1" speed="22.22" disallow="tram rail_urban rail rail_electric rail_fast ship" oneway="0"/>
    <type id="highway.tertiary_link" priority="5" numLanes="1" speed="22.22" disallow="tram rail_urban rail rail_electric rail_fast ship" oneway="0"/>
    <type id="highway.track" priority="1" numLanes="1" speed="5.56" allow="pedestrian motorcycle moped bicycle" oneway="0"/>
    <type id="highway.trunk" priority="13" numLanes="2" speed="27.78" disallow="pedestrian bicycle tram rail_urban rail rail_electric rail_fast ship" oneway="0"/>
    <type id="highway.trunk_link" priority="8" numLanes="1" speed="22.22" disallow="pedestrian bicycle tram rail_urban rail rail_electric rail_fast ship" oneway="0"/>
    <type id="highway.unclassified" priority="4" numLanes="1" speed="13.89" disallow="tram rail_urban rail rail_electric rail_fast ship" oneway="0"/>
    <type id="highway.unsurfaced" priority="1" numLanes="1" speed="8.33" disallow="tram rail_urban rail rail_electric rail_fast ship" oneway="0"/>
    <type id="railway.highspeed" priority="21" numLanes="1" speed="69.44" allow="rail_fast" oneway="1"/>
    <type id="railway.light_rail" priority="19" numLanes="1" speed="27.78" allow="rail_urban" oneway="1"/>
    <type id="railway.preserved" priority="16" numLanes="1" speed="27.78" allow="rail" oneway="1"/>
    <type id="railway.rail" priority="20" numLanes="1" speed="44.44" allow="rail" oneway="1"/>
    <type id="railway.subway" priority="18" numLanes="1" speed="27.78" allow="rail_urban" oneway="1"/>
    <type id="railway.tram" priority="17" numLanes="1" speed="13.89" allow="tram" oneway="1"/>

    <edge id=":1396114315_0" function="internal">
        <lane id=":1396114315_0_0" index="0" allow="private emergency authority army vip passenger hov taxi bus coach delivery truck trailer motorcycle evehicle custom1 custom2" speed="11.49" length="6.17" shape="335.56,360.84 335.85,359.07 336.35,357.93 337.12,356.89 338.24,355.43"/>
    </edge>
    <edge id=":1396114315_1" function="internal">
        <lane id=":1396114315_1_0" index="0" disallow="tram rail_urban rail rail_electric rail_fast ship" speed="13.89" length="6.91" shape="332.38,360.53 332.82,358.56 333.50,357.30 334.18,356.04 334.61,354.07"/>
        <lane id=":1396114315_1_1" index="1" disallow="tram rail_urban rail rail_electric rail_fast ship" speed="13.89" length="6.91" shape="329.19,360.23 329.63,358.26 330.32,356.99 330.99,355.72 331.43,353.75"/>
        <lane id=":1396114315_1_2" index="2" disallow="tram rail_urban rail rail_electric rail_fast ship" speed="13.89" length="6.91" shape="326.00,359.92 326.45,357.95 327.13,356.68 327.81,355.41 328.24,353.44"/>
    </edge>
    <edge id=":1791625508_0" function="internal">
        <lane id=":1791625508_0_0" index="0" allow="private emergency authority army vip passenger hov taxi bus coach delivery truck trailer motorcycle evehicle custom1 custom2" speed="19.29" length="8.67" shape="385.84,254.76 383.61,253.56 381.92,253.09 380.13,252.91 377.56,252.58"/>
    </edge>
    <edge id=":1791625508_1" function="internal">
        <lane id=":1791625508_1_0" index="0" allow="private emergency authority army vip passenger hov taxi bus coach delivery truck trailer motorcycle evehicle custom1 custom2" speed="25.00" length="5.64" shape="384.13,257.47 382.20,256.30 380.82,255.59 379.40,254.97 377.33,254.06"/>
        <lane id=":1791625508_1_1" index="1" allow="private emergency authority army vip passenger hov taxi bus coach delivery truck trailer motorcycle evehicle custom1 custom2" speed="25.00" length="5.64" shape="382.42,260.17 380.83,259.20 379.70,258.61 378.53,258.09 376.81,257.34"/>
        <lane id=":1791625508_1_2" index="2" allow="private emergency authority army vip passenger hov taxi bus coach delivery truck trailer motorcycle evehicle custom1 custom2" speed="25.00" length="5.64" shape="380.72,262.88 379.46,262.11 378.57,261.63 377.65,261.21 376.30,260.61"/>
        <lane id=":1791625508_1_3" index="3" allow="private emergency authority army vip passenger hov taxi bus coach delivery truck trailer motorcycle evehicle custom1 custom2" speed="25.00" length="5.64" shape="379.01,265.59 378.09,265.02 377.44,264.65 376.77,264.33 375.78,263.89"/>
    </edge>
    <edge id=":1791625510_0" function="internal">
        <lane id=":1791625510_0_0" index="0" allow="private emergency authority army vip passenger hov taxi bus coach delivery truck trailer motorcycle evehicle custom1 custom2" speed="25.00" length="8.11" shape="418.25,279.15 416.46,277.32 415.76,275.53 415.05,273.76 413.20,272.01"/>
        <lane id=":1791625510_0_1" index="1" allow="private emergency authority army vip passenger hov taxi bus coach delivery truck trailer motorcycle evehicle custom1 custom2" speed="25.00" length="8.11" shape="418.25,279.15 411.50,274.72"/>
        <lane id=":1791625510_0_2" index="2" allow="private emergency authority army vip passenger hov taxi bus coach delivery truck trailer motorcycle evehicle custom1 custom2" speed="25.00" length="8.11" shape="416.45,281.79 409.79,277.42"/>
        <lane id=":1791625510_0_3" index="3" allow="private emergency authority army vip passenger hov taxi bus coach delivery truck trailer motorcycle evehicle custom1 custom2" speed="25.00" length="8.11" shape="414.64,284.43 408.09,280.13"/>
        <lane id=":1791625510_0_4" index="4" allow="private emergency authority army vip passenger hov taxi bus coach delivery truck trailer motorcycle evehicle custom1 custom2" speed="25.00" length="8.11" shape="412.84,287.08 406.38,282.84"/>
    </edge>
    <edge id=":1791653959_0" function="internal">
        <lane id=":1791653959_0_0" index="0" allow="private emergency authority army vip passenger hov taxi bus coach delivery truck trailer motorcycle evehicle custom1 custom2" speed="8.85" length="5.63" shape="478.77,188.33 477.34,189.11 476.23,189.37 475.04,189.30 473.38,189.08"/>
    </edge>
    <edge id=":1791653959_1" function="internal">
        <lane id=":1791653959_1_0" index="0" disallow="tram rail_urban rail rail_electric rail_fast ship" speed="16.67" length="6.52" shape="480.48,191.04 478.76,191.83 477.41,192.02 476.07,192.21 474.34,193.00"/>
        <lane id=":1791653959_1_1" index="1" disallow="tram rail_urban rail rail_electric rail_fast ship" speed="16.67" length="6.52" shape="482.20,193.74 480.47,194.53 479.12,194.73 477.78,194.92 476.05,195.71"/>
        <lane id=":1791653959_1_2" index="2" disallow="tram rail_urban rail rail_electric rail_fast ship" speed="16.67" length="6.52" shape="483.91,196.44 482.18,197.24 480.83,197.43 479.48,197.63 477.75,198.42"/>
    </edge>
    <edge id=":1791653961_0" function="internal">
        <lane id=":1791653961_0_0" index="0" allow="private emergency authority army vip passenger hov taxi bus coach delivery truck trailer motorcycle evehicle custom1 custom2" speed="12.94" length="9.29" shape="445.62,181.28 443.01,180.34 441.11,179.74 439.52,178.77 437.83,176.72"/>
    </edge>
    <edge id=":1791653961_1" function="internal">
        <lane id=":1791653961_1_0" index="0" allow="private emergency authority army vip passenger hov taxi bus coach delivery truck trailer motorcycle evehicle custom1 custom2" speed="13.89" length="9.31" shape="443.16,184.30 437.83,176.72"/>
        <lane id=":1791653961_1_1" index="1" allow="private emergency authority army vip passenger hov taxi bus coach delivery truck trailer motorcycle evehicle custom1 custom2" speed="13.89" length="9.31" shape="440.54,186.14 435.16,178.49"/>
    </edge>
    <edge id=":1791654001_0" function="internal">
        <lane id=":1791654001_0_0" index="0" disallow="tram rail_urban rail rail_electric rail_fast ship" speed="16.67" length="7.28" shape="198.32,241.88 196.06,241.48 194.55,240.87 193.04,240.37 190.78,240.27"/>
        <lane id=":1791654001_0_1" index="1" disallow="tram rail_urban rail rail_electric rail_fast ship" speed="16.67" length="7.28" shape="198.32,241.88 196.13,241.98 194.66,242.48 193.20,243.07 191.00,243.47"/>
        <lane id=":1791654001_0_2" index="2" disallow="tram rail_urban rail rail_electric rail_fast ship" speed="16.67" length="7.28" shape="198.09,245.08 196.03,245.18 194.66,245.68 193.28,246.27 191.22,246.66"/>
        <lane id=":1791654001_0_3" index="3" disallow="tram rail_urban rail rail_electric rail_fast ship" speed="16.67" length="7.28" shape="197.85,248.27 195.93,248.38 194.65,248.88 193.37,249.47 191.45,249.85"/>
    </edge>
    <edge id=":1791656842_0" function="internal">
        <lane id=":1791656842_0_0" index="0" allow="private emergency authority army vip passenger hov taxi bus coach delivery truck trailer motorcycle evehicle custom1 custom2" speed="13.89" length="8.15" shape="225.30,219.90 227.47,220.89 228.79,221.93 230.09,223.00 232.23,224.09"/>
    </edge>
    <edge id=":1791656844_0" function="internal">
        <lane id=":1791656844_0_0" index="0" allow="private emergency authority army vip passenger hov taxi bus coach delivery truck trailer motorcycle evehicle custom1 custom2" speed="10.53" length="12.65" shape="128.32,225.16 128.93,221.09 129.91,217.84 131.27,215.41 132.99,213.80"/>
    </edge>
    <edge id=":1791656844_1" function="internal">
        <lane id=":1791656844_1_0" index="0" allow="private emergency authority army vip passenger hov taxi bus coach delivery truck trailer motorcycle evehicle custom1 custom2" speed="13.89" length="13.09" shape="124.71,223.20 127.02,220.23 128.42,218.00 130.05,216.02 132.99,213.80"/>
        <lane id=":1791656844_1_1" index="1" allow="private emergency authority army vip passenger hov taxi bus coach delivery truck trailer motorcycle evehicle custom1 custom2" speed="13.89" length="13.09" shape="122.32,221.07 124.81,217.90 126.35,215.54 128.12,213.46 131.29,211.10"/>
    </edge>
    <edge id=":1791656851_0" function="internal">
        <lane id=":1791656851_0_0" index="0" allow="private emergency authority army vip passenger hov taxi bus coach delivery truck trailer motorcycle evehicle custom1 custom2" speed="8.53" length="4.51" shape="142.74,242.62 141.40,242.73 140.44,242.80 139.55,242.62 138.41,242.01"/>
    </edge>
    <edge id=":1791656851_1" function="internal">
        <lane id=":1791656851_1_0" index="0" disallow="tram rail_urban rail rail_electric rail_fast ship" speed="16.67" length="4.23" shape="142.88,245.82 138.40,246.24"/>
        <lane id=":1791656851_1_1" index="1" disallow="tram rail_urban rail rail_electric rail_fast ship" speed="16.67" length="4.23" shape="143.02,249.01 138.81,249.41"/>
        <lane id=":1791656851_1_2" index="2" disallow="tram rail_urban rail rail_electric rail_fast ship" speed="16.67" length="4.23" shape="143.16,252.21 139.22,252.59"/>
    </edge>
    <edge id=":1791656852_0" function="internal">
        <lane id=":1791656852_0_0" index="0" allow="private emergency authority army vip passenger hov taxi bus coach delivery truck trailer motorcycle evehicle custom1 custom2" speed="25.00" length="3.00" shape="281.60,242.00 284.40,243.43"/>
        <lane id=":1791656852_0_1" index="1" allow="private emergency authority army vip passenger hov taxi bus coach delivery truck trailer motorcycle evehicle custom1 custom2" speed="25.00" length="3.00" shape="283.09,239.17 285.81,240.55"/>
        <lane id=":1791656852_0_2" index="2" allow="private emergency authority army vip passenger hov taxi bus coach delivery truck trailer motorcycle evehicle custom1 custom2" speed="25.00" length="3.00" shape="284.59,236.34 287.22,237.68"/>
        <lane id=":1791656852_0_3" index="3" allow="private emergency authority army vip passenger hov taxi bus coach delivery truck trailer motorcycle evehicle custom1 custom2" speed="25.00" length="3.00" shape="286.09,233.51 288.63,234.81"/>
    </edge>
    <edge id=":1791656852_4" function="internal">
        <lane id=":1791656852_4_0" index="0" allow="private emergency authority army vip passenger hov taxi bus coach delivery truck trailer motorcycle evehicle custom1 custom2" speed="19.45" length="3.24" shape="280.12,244.80 282.99,246.30"/>
    </edge>
    <edge id=":1791664797_0" function="internal">
        <lane id=":1791664797_0_0" index="0" allow="private emergency authority army vip passenger hov taxi bus coach delivery truck trailer motorcycle evehicle custom1 custom2" speed="13.89" length="9.63" shape="55.93,152.41 58.02,153.72 59.40,154.70 60.68,155.81 62.46,157.53"/>
        <lane id=":1791664797_0_1" index="1" allow="private emergency authority army vip passenger hov taxi bus coach delivery truck trailer motorcycle evehicle custom1 custom2" speed="13.89" length="9.63" shape="55.93,152.41 58.49,153.42 60.55,153.53 62.49,153.78 64.70,155.24"/>
        <lane id=":1791664797_0_2" index="2" allow="private emergency authority army vip passenger hov taxi bus coach delivery truck trailer motorcycle evehicle custom1 custom2" speed="13.89" length="9.63" shape="57.62,149.69 60.35,150.81 62.53,151.01 64.58,151.36 66.94,152.96"/>
        <lane id=":1791664797_0_3" index="3" allow="private emergency authority army vip passenger hov taxi bus coach delivery truck trailer motorcycle evehicle custom1 custom2" speed="13.89" length="9.63" shape="59.31,146.97 62.21,148.20 64.51,148.48 66.67,148.93 69.17,150.67"/>
    </edge>
    <edge id=":1791664835_0" function="internal">
        <lane id=":1791664835_0_0" index="0" allow="private emergency authority army vip passenger hov taxi bus coach delivery truck trailer motorcycle evehicle custom1 custom2" speed="8.60" length="10.30" shape="85.02,244.35 83.11,246.49 81.01,247.91 78.72,248.63 76.23,248.64"/>
    </edge>
    <edge id=":1791664835_1" function="internal">
        <lane id=":1791664835_1_0" index="0" disallow="tram rail_urban rail rail_electric rail_fast ship" speed="16.67" length="11.20" shape="86.89,248.57 83.72,248.74 81.54,248.92 79.37,248.94 76.23,248.64"/>
        <lane id=":1791664835_1_1" index="1" disallow="tram rail_urban rail rail_electric rail_fast ship" speed="16.67" length="11.20" shape="86.97,251.77 83.65,251.94 81.37,252.12 79.10,252.13 75.80,251.81"/>
        <lane id=":1791664835_1_2" index="2" disallow="tram rail_urban rail rail_electric rail_fast ship" speed="16.67" length="11.20" shape="87.05,254.97 83.58,255.14 81.20,255.32 78.82,255.33 75.38,254.98"/>
    </edge>
    <edge id=":245396678_0" function="internal">
        <lane id=":245396678_0_0" index="0" allow="private emergency authority army vip passenger hov taxi bus coach delivery truck trailer motorcycle evehicle custom1 custom2" speed="13.89" length="12.37" shape="403.06,225.14 400.77,227.40 398.86,229.18 396.55,230.70 393.07,232.18"/>
    </edge>
    <edge id=":245396678_1" function="internal">
        <lane id=":245396678_1_0" index="0" disallow="tram rail_urban rail rail_electric rail_fast ship" speed="13.89" length="9.61" shape="402.77,230.43 399.85,230.81 397.84,230.98 395.86,231.32 393.07,232.18"/>
        <lane id=":245396678_1_1" index="1" disallow="tram rail_urban rail rail_electric rail_fast ship" speed="13.89" length="9.61" shape="403.31,233.58 400.56,233.93 398.65,234.09 396.78,234.39 394.14,235.19"/>
    </edge>
    <edge id=":245396683_0" function="internal">
        <lane id=":245396683_0_0" index="0" disallow="tram rail_urban rail rail_electric rail_fast ship" speed="12.46" length="10.73" shape="313.61,260.47 310.84,261.40 308.88,262.16 306.94,262.38 304.26,261.70"/>
        <lane id=":245396683_0_1" index="1" disallow="tram rail_urban rail rail_electric rail_fast ship" speed="13.62" length="10.73" shape="314.42,263.57 311.08,264.63 308.70,265.42 306.35,265.57 303.12,264.70"/>
    </edge>
    <edge id=":245396683_2" function="internal">
        <lane id=":245396683_2_0" index="0" disallow="tram rail_urban rail rail_electric rail_fast ship" speed="16.67" length="11.36" shape="314.14,267.55 310.95,266.46 308.65,266.06 306.35,265.69 303.12,264.70"/>
        <lane id=":245396683_2_1" index="1" disallow="tram rail_urban rail rail_electric rail_fast ship" speed="16.67" length="11.36" shape="312.90,270.50 309.74,269.43 307.47,269.03 305.18,268.67 301.98,267.69"/>
    </edge>
    <edge id=":245396695_0" function="internal">
        <lane id=":245396695_0_0" index="0" disallow="tram rail_urban rail rail_electric rail_fast ship" speed="13.89" length="18.58" shape="335.80,340.93 336.63,335.56 337.96,332.05 339.90,328.71 342.57,323.86"/>
        <lane id=":245396695_0_1" index="1" disallow="tram rail_urban rail rail_electric rail_fast ship" speed="13.89" length="19.77" shape="332.61,340.64 333.48,334.92 334.85,331.17 336.88,327.60 339.71,322.43"/>
    </edge>
    <edge id=":245396695_2" function="internal">
        <lane id=":245396695_2_0" index="0" disallow="pedestrian tram rail_urban rail rail_electric rail_fast ship" speed="13.89" length="19.50" shape="332.61,340.64 335.33,321.26"/>
        <lane id=":245396695_2_1" index="1" disallow="pedestrian tram rail_urban rail rail_electric rail_fast ship" speed="13.89" length="19.50" shape="329.43,340.35 332.12,321.12"/>
    </edge>
    <edge id=":245396710_0" function="internal">
        <lane id=":245396710_0_0" index="0" allow="private emergency authority army vip passenger hov taxi bus coach delivery truck trailer motorcycle evehicle custom1 custom2" speed="13.89" length="8.20" shape="334.69,225.96 332.77,224.52 331.68,223.22 330.60,221.92 328.70,220.45"/>
        <lane id=":245396710_0_1" index="1" allow="private emergency authority army vip passenger hov taxi bus coach delivery truck trailer motorcycle evehicle custom1 custom2" speed="13.89" length="8.20" shape="334.69,225.96 332.50,224.94 330.84,224.59 329.19,224.22 327.02,223.18"/>
    </edge>
    <edge id=":245396733_0" function="internal">
        <lane id=":245396733_0_0" index="0" allow="private emergency authority army vip passenger hov taxi bus coach delivery truck trailer motorcycle evehicle custom1 custom2" speed="13.89" length="12.70" shape="404.40,153.16 407.10,155.77 408.29,158.32 408.88,161.07 409.76,164.27"/>
    </edge>
    <edge id=":245396733_1" function="internal">
        <lane id=":245396733_1_0" index="0" allow="private emergency authority army vip passenger hov taxi bus coach delivery truck trailer motorcycle evehicle custom1 custom2" speed="13.89" length="12.83" shape="404.40,153.16 407.26,155.50 408.94,157.40 410.49,159.47 412.92,162.29"/>
        <lane id=":245396733_1_1" index="1" allow="private emergency authority army vip passenger hov taxi bus coach delivery truck trailer motorcycle evehicle custom1 custom2" speed="13.89" length="12.83" shape="406.28,150.57 409.28,153.01 411.06,154.99 412.69,157.14 415.24,160.08"/>
    </edge>
    <edge id=":245404238_0" function="internal">
        <lane id=":245404238_0_0" index="0" allow="private emergency authority army vip passenger hov taxi bus coach delivery truck trailer motorcycle evehicle custom1 custom2" speed="13.89" length="9.90" shape="252.49,148.49 249.77,149.52 247.79,149.92 245.75,149.86 242.84,149.52"/>
    </edge>
    <edge id=":245404238_1" function="internal">
        <lane id=":245404238_1_0" index="0" allow="private emergency authority army vip passenger hov taxi bus coach delivery truck trailer motorcycle evehicle custom1 custom2" speed="13.89" length="10.90" shape="253.72,151.45 250.63,152.57 248.38,153.10 246.16,153.49 243.19,154.19"/>
    </edge>
    <edge id=":3073120651_0" function="internal">
        <lane id=":3073120651_0_0" index="0" allow="private emergency authority army vip passenger hov taxi bus coach delivery truck trailer motorcycle evehicle custom1 custom2" speed="6.95" length="4.92" shape="223.65,130.47 223.71,129.21 224.03,128.06 224.60,127.01 225.44,126.06"/>
    </edge>
    <edge id=":3614360110_0" function="internal">
        <lane id=":3614360110_0_0" index="0" disallow="tram rail_urban rail rail_electric rail_fast ship" speed="3.65" length="4.67" shape="159.44,85.75 159.19,87.17 159.50,88.01 160.35,88.27 161.76,87.95"/>
    </edge>
    <edge id=":4735489768_0" function="internal">
        <lane id=":4735489768_0_0" index="0" disallow="tram rail_urban rail rail_electric rail_fast ship" speed="3.65" length="4.67" shape="246.04,1.09 246.27,-0.33 245.96,-1.17 245.10,-1.42 243.70,-1.09"/>
    </edge>
    <edge id=":4738364153_0" function="internal">
        <lane id=":4738364153_0_0" index="0" disallow="tram rail_urban rail rail_electric rail_fast ship" speed="13.89" length="8.21" shape="327.53,427.58 328.02,425.22 328.73,423.67 329.43,422.13 329.91,419.76"/>
        <lane id=":4738364153_0_1" index="1" disallow="tram rail_urban rail rail_electric rail_fast ship" speed="13.89" length="8.21" shape="327.53,427.58 327.52,425.17 327.14,423.52 326.74,421.87 326.72,419.45"/>
        <lane id=":4738364153_0_2" index="2" disallow="tram rail_urban rail rail_electric rail_fast ship" speed="13.89" length="8.21" shape="324.34,427.26 324.34,424.85 323.95,423.20 323.56,421.56 323.54,419.15"/>
        <lane id=":4738364153_0_3" index="3" disallow="tram rail_urban rail rail_electric rail_fast ship" speed="13.89" length="8.21" shape="321.16,426.93 321.15,424.53 320.77,422.89 320.37,421.24 320.35,418.84"/>
    </edge>
    <edge id=":4747950911_0" function="internal">
        <lane id=":4747950911_0_0" index="0" disallow="tram rail_urban rail rail_electric rail_fast ship" speed="15.28" length="15.37" shape="350.63,309.84 353.39,306.53 355.81,304.77 358.56,303.35 362.34,301.08"/>
        <lane id=":4747950911_0_1" index="1" disallow="tram rail_urban rail rail_electric rail_fast ship" speed="15.28" length="15.37" shape="348.02,307.99 350.98,304.41 353.55,302.47 356.48,300.90 360.54,298.44"/>
    </edge>
    <edge id=":4747950911_2" function="internal">
        <lane id=":4747950911_2_0" index="0" disallow="tram rail_urban rail rail_electric rail_fast ship" speed="10.01" length="9.13" shape="350.02,297.63 352.34,297.84 354.57,297.61 356.70,296.93 358.73,295.80"/>
        <lane id=":4747950911_2_1" index="1" disallow="tram rail_urban rail rail_electric rail_fast ship" speed="8.59" length="6.62" shape="350.61,294.48 352.29,294.64 353.91,294.47 355.45,293.98 356.92,293.15"/>
        <lane id=":4747950911_2_2" index="2" disallow="tram rail_urban rail rail_electric rail_fast ship" speed="6.89" length="4.10" shape="351.21,291.34 352.25,291.43 353.25,291.33 354.20,291.02 355.12,290.51"/>
    </edge>
    <edge id=":5230807088_0" function="internal">
        <lane id=":5230807088_0_0" index="0" allow="private emergency authority army vip passenger hov taxi bus coach delivery truck trailer motorcycle evehicle custom1 custom2" speed="13.89" length="7.96" shape="287.17,135.59 285.02,136.37 283.42,136.52 281.80,136.63 279.59,137.28"/>
        <lane id=":5230807088_0_1" index="1" allow="private emergency authority army vip passenger hov taxi bus coach delivery truck trailer motorcycle evehicle custom1 custom2" speed="13.89" length="7.96" shape="287.17,135.59 285.20,136.84 284.03,138.00 282.84,139.12 280.81,140.24"/>
        <lane id=":5230807088_0_2" index="2" allow="private emergency authority army vip passenger hov taxi bus coach delivery truck trailer motorcycle evehicle custom1 custom2" speed="13.89" length="7.96" shape="288.59,138.46 286.56,139.74 285.36,140.92 284.13,142.05 282.04,143.19"/>
    </edge>
    <edge id=":5280892177_0" function="internal">
        <lane id=":5280892177_0_0" index="0" disallow="tram rail_urban rail rail_electric rail_fast ship" speed="3.65" length="4.67" shape="275.73,80.88 276.09,79.48 275.85,78.62 275.01,78.29 273.59,78.50"/>
    </edge>
    <edge id=":5683974196_0" function="internal">
        <lane id=":5683974196_0_0" index="0" disallow="tram rail_urban rail rail_electric rail_fast ship" speed="15.28" length="17.25" shape="419.34,225.88 414.98,228.38 411.64,229.39 408.06,229.77 402.96,230.39"/>
        <lane id=":5683974196_0_1" index="1" disallow="tram rail_urban rail rail_electric rail_fast ship" speed="15.28" length="18.58" shape="421.11,228.55 416.42,231.26 412.84,232.40 409.00,232.85 403.50,233.55"/>
    </edge>
    <edge id=":5683974196_2" function="internal">
        <lane id=":5683974196_2_0" index="0" disallow="tram rail_urban rail rail_electric rail_fast ship" speed="16.67" length="21.12" shape="421.11,228.55 415.77,231.76 411.88,233.55 407.96,235.31 402.55,238.41"/>
        <lane id=":5683974196_2_1" index="1" disallow="tram rail_urban rail rail_electric rail_fast ship" speed="16.67" length="21.12" shape="422.89,231.21 417.53,234.43 413.62,236.23 409.70,238.00 404.27,241.11"/>
        <lane id=":5683974196_2_2" index="2" disallow="tram rail_urban rail rail_electric rail_fast ship" speed="16.67" length="21.12" shape="424.66,233.87 419.29,237.10 415.37,238.91 411.43,240.68 405.99,243.81"/>
    </edge>
    <edge id=":574486356_0" function="internal">
        <lane id=":574486356_0_0" index="0" allow="private emergency authority army vip passenger hov taxi bus coach delivery truck trailer motorcycle evehicle custom1 custom2" speed="25.00" length="7.90" shape="550.63,406.02 557.07,410.90"/>
        <lane id=":574486356_0_1" index="1" allow="private emergency authority army vip passenger hov taxi bus coach delivery truck trailer motorcycle evehicle custom1 custom2" speed="25.00" length="7.90" shape="552.62,403.50 558.96,408.31"/>
        <lane id=":574486356_0_2" index="2" allow="private emergency authority army vip passenger hov taxi bus coach delivery truck trailer motorcycle evehicle custom1 custom2" speed="25.00" length="7.90" shape="554.60,400.99 560.84,405.73"/>