<?xml version="1.0" encoding="UTF-8"?>

<!-- generated on 2023-04-03 22:38:52 by Eclipse SUMO netedit Version 1.16.0
-->

<routes xmlns:xsi="http://www.w3.org/2001/XMLSchema-instance" xsi:noNamespaceSchemaLocation="http://sumo.dlr.de/xsd/routes_file.xsd">
    <!-- Vehicles, persons and containers (sorted by depart) -->
    <vehicle id="v_0" depart="0.00" color="blue">
        <route edges="1to2"/>
    </vehicle>
</routes>
