<?xml version="1.0" encoding="UTF-8"?>

<!-- generated on 2023-07-20 11:28:57 by Eclipse SUMO netconvert Version 1.17.0
<configuration xmlns:xsi="http://www.w3.org/2001/XMLSchema-instance" xsi:noNamespaceSchemaLocation="http://sumo.dlr.de/xsd/netconvertConfiguration.xsd">

    <input>
        <sumo-net-file value="osm.net.xml.gz"/>
    </input>

    <output>
        <output-file value="osm.net.xml"/>
        <output.street-names value="true"/>
    </output>

    <processing>
        <geometry.min-radius.fix.railways value="false"/>
        <geometry.max-grade.fix value="false"/>
        <offset.disable-normalization value="true"/>
        <lefthand value="1"/>
    </processing>

    <junctions>
        <no-turnarounds value="true"/>
        <junctions.corner-detail value="5"/>
        <junctions.limit-turn-speed value="5.50"/>
        <rectangular-lane-cut value="0"/>
    </junctions>

    <pedestrian>
        <walkingareas value="0"/>
    </pedestrian>

</configuration>
-->

<net version="1.16" junctionCornerDetail="5" lefthand="true" limitTurnSpeed="5.50" xmlns:xsi="http://www.w3.org/2001/XMLSchema-instance" xsi:noNamespaceSchemaLocation="http://sumo.dlr.de/xsd/net_file.xsd">

    <location netOffset="-373160.09,-146731.15" convBoundary="0.00,0.00,667.79,766.43" origBoundary="103.859892,1.327257,103.865894,1.334190" projParameter="+proj=utm +zone=48 +ellps=WGS84 +datum=WGS84 +units=m +no_defs"/>

    <type id="highway.bridleway" priority="1" numLanes="1" speed="2.78" allow="pedestrian" oneway="1" width="2.00"/>
    <type id="highway.bus_guideway" priority="1" numLanes="1" speed="27.78" allow="bus" oneway="1"/>
    <type id="highway.cycleway" priority="1" numLanes="1" speed="5.56" allow="bicycle" oneway="0" width="1.00"/>
    <type id="highway.footway" priority="1" numLanes="1" speed="2.78" allow="pedestrian" oneway="1" width="2.00"/>
    <type id="highway.ford" priority="1" numLanes="1" speed="2.78" allow="army" oneway="0"/>
    <type id="highway.living_street" priority="2" numLanes="1" speed="2.78" disallow="tram rail_urban rail rail_electric rail_fast ship" oneway="0"/>
    <type id="highway.motorway" priority="14" numLanes="2" speed="39.44" allow="private emergency authority army vip passenger hov taxi bus coach delivery truck trailer motorcycle evehicle custom1 custom2" oneway="1"/>
    <type id="highway.motorway_link" priority="9" numLanes="1" speed="22.22" allow="private emergency authority army vip passenger hov taxi bus coach delivery truck trailer motorcycle evehicle custom1 custom2" oneway="1"/>
    <type id="highway.path" priority="1" numLanes="1" speed="5.56" allow="pedestrian bicycle" oneway="0" width="2.00"/>
    <type id="highway.pedestrian" priority="1" numLanes="1" speed="2.78" allow="pedestrian" oneway="1" width="2.00"/>
    <type id="highway.primary" priority="12" numLanes="2" speed="27.78" disallow="tram rail_urban rail rail_electric rail_fast ship" oneway="0"/>
    <type id="highway.primary_link" priority="7" numLanes="1" speed="22.22" disallow="tram rail_urban rail rail_electric rail_fast ship" oneway="0"/>
    <type id="highway.raceway" priority="15" numLanes="2" speed="83.33" allow="vip" oneway="0"/>
    <type id="highway.residential" priority="3" numLanes="1" speed="13.89" disallow="tram rail_urban rail rail_electric rail_fast ship" oneway="0"/>
    <type id="highway.secondary" priority="11" numLanes="1" speed="27.78" disallow="tram rail_urban rail rail_electric rail_fast ship" oneway="0"/>
    <type id="highway.secondary_link" priority="6" numLanes="1" speed="22.22" disallow="tram rail_urban rail rail_electric rail_fast ship" oneway="0"/>
    <type id="highway.service" priority="1" numLanes="1" speed="5.56" allow="pedestrian delivery bicycle" oneway="0"/>
    <type id="highway.stairs" priority="1" numLanes="1" speed="1.39" allow="pedestrian" oneway="1" width="2.00"/>
    <type id="highway.step" priority="1" numLanes="1" speed="1.39" allow="pedestrian" oneway="1" width="2.00"/>
    <type id="highway.steps" priority="1" numLanes="1" speed="1.39" allow="pedestrian" oneway="1" width="2.00"/>
    <type id="highway.tertiary" priority="10" numLanes="1" speed="22.22" disallow="tram rail_urban rail rail_electric rail_fast ship" oneway="0"/>
    <type id="highway.tertiary_link" priority="5" numLanes="1" speed="22.22" disallow="tram rail_urban rail rail_electric rail_fast ship" oneway="0"/>
    <type id="highway.track" priority="1" numLanes="1" speed="5.56" allow="pedestrian motorcycle moped bicycle" oneway="0"/>
    <type id="highway.trunk" priority="13" numLanes="2" speed="27.78" disallow="pedestrian bicycle tram rail_urban rail rail_electric rail_fast ship" oneway="0"/>
    <type id="highway.trunk_link" priority="8" numLanes="1" speed="22.22" disallow="pedestrian bicycle tram rail_urban rail rail_electric rail_fast ship" oneway="0"/>
    <type id="highway.unclassified" priority="4" numLanes="1" speed="13.89" disallow="tram rail_urban rail rail_electric rail_fast ship" oneway="0"/>
    <type id="highway.unsurfaced" priority="1" numLanes="1" speed="8.33" disallow="tram rail_urban rail rail_electric rail_fast ship" oneway="0"/>
    <type id="railway.highspeed" priority="21" numLanes="1" speed="69.44" allow="rail_fast" oneway="1"/>
    <type id="railway.light_rail" priority="19" numLanes="1" speed="27.78" allow="rail_urban" oneway="1"/>
    <type id="railway.preserved" priority="16" numLanes="1" speed="27.78" allow="rail" oneway="1"/>
    <type id="railway.rail" priority="20" numLanes="1" speed="44.44" allow="rail" oneway="1"/>
    <type id="railway.subway" priority="18" numLanes="1" speed="27.78" allow="rail_urban" oneway="1"/>
    <type id="railway.tram" priority="17" numLanes="1" speed="13.89" allow="tram" oneway="1"/>

    <edge id=":133745582_0" function="internal">
        <lane id=":133745582_0_0" index="0" allow="private emergency authority army vip passenger hov taxi bus coach delivery truck trailer motorcycle evehicle custom1 custom2" speed="19.45" length="3.16" shape="289.69,286.24 289.61,283.08"/>
    </edge>
    <edge id=":133745582_1" function="internal">
        <lane id=":133745582_1_0" index="0" allow="private emergency authority army vip passenger hov taxi bus coach delivery truck trailer motorcycle evehicle custom1 custom2" speed="25.00" length="2.78" shape="286.49,286.24 286.40,283.23"/>
        <lane id=":133745582_1_1" index="1" allow="private emergency authority army vip passenger hov taxi bus coach delivery truck trailer motorcycle evehicle custom1 custom2" speed="25.00" length="2.78" shape="283.29,286.23 283.20,283.38"/>
        <lane id=":133745582_1_2" index="2" allow="private emergency authority army vip passenger hov taxi bus coach delivery truck trailer motorcycle evehicle custom1 custom2" speed="25.00" length="2.78" shape="280.09,286.23 280.01,283.53"/>
        <lane id=":133745582_1_3" index="3" allow="private emergency authority army vip passenger hov taxi bus coach delivery truck trailer motorcycle evehicle custom1 custom2" speed="25.00" length="2.78" shape="276.89,286.23 276.81,283.69"/>
    </edge>
    <edge id=":137302641_0" function="internal">
        <lane id=":137302641_0_0" index="0" allow="private emergency authority army vip passenger hov taxi bus coach delivery truck trailer motorcycle evehicle custom1 custom2" speed="19.45" length="4.82" shape="255.39,281.42 255.41,282.85 255.47,283.82 255.58,284.80 255.75,286.22"/>
        <lane id=":137302641_0_1" index="1" allow="private emergency authority army vip passenger hov taxi bus coach delivery truck trailer motorcycle evehicle custom1 custom2" speed="19.45" length="4.48" shape="258.59,281.39 258.61,282.72 258.67,283.63 258.77,284.54 258.93,285.86"/>
    </edge>
    <edge id=":137302641_2" function="internal">
        <lane id=":137302641_2_0" index="0" allow="private emergency authority army vip passenger hov taxi bus coach delivery truck trailer motorcycle evehicle custom1 custom2" speed="25.00" length="4.25" shape="261.79,281.37 261.55,282.70 261.00,283.54 260.44,284.38 260.19,285.71"/>
        <lane id=":137302641_2_1" index="1" allow="private emergency authority army vip passenger hov taxi bus coach delivery truck trailer motorcycle evehicle custom1 custom2" speed="25.00" length="4.25" shape="264.99,281.35 264.75,282.58 264.20,283.35 263.65,284.12 263.39,285.35"/>
        <lane id=":137302641_2_2" index="2" allow="private emergency authority army vip passenger hov taxi bus coach delivery truck trailer motorcycle evehicle custom1 custom2" speed="25.00" length="4.25" shape="268.19,281.33 267.95,282.46 267.40,283.16 266.85,283.85 266.59,284.98"/>
        <lane id=":137302641_2_3" index="3" allow="private emergency authority army vip passenger hov taxi bus coach delivery truck trailer motorcycle evehicle custom1 custom2" speed="25.00" length="4.25" shape="271.39,281.31 271.15,282.34 270.60,282.96 270.05,283.58 269.79,284.61"/>
    </edge>
    <edge id=":1717907087_0" function="internal">
        <lane id=":1717907087_0_0" index="0" allow="private emergency authority army vip passenger hov taxi bus coach delivery truck trailer motorcycle evehicle custom1 custom2" speed="13.89" length="0.26" shape="306.66,310.49 306.59,310.52 306.54,310.54 306.49,310.55 306.41,310.57"/>
    </edge>
    <edge id=":1717907099_0" function="internal">
        <lane id=":1717907099_0_0" index="0" allow="private emergency authority army vip passenger hov taxi bus coach delivery truck trailer motorcycle evehicle custom1 custom2" speed="25.00" length="8.10" shape="286.18,480.62 286.78,478.13 287.93,476.58 289.04,475.03 289.54,472.54"/>
        <lane id=":1717907099_0_1" index="1" allow="private emergency authority army vip passenger hov taxi bus coach delivery truck trailer motorcycle evehicle custom1 custom2" speed="25.00" length="8.10" shape="286.18,480.62 286.34,472.54"/>
        <lane id=":1717907099_0_2" index="2" allow="private emergency authority army vip passenger hov taxi bus coach delivery truck trailer motorcycle evehicle custom1 custom2" speed="25.00" length="8.10" shape="282.98,480.49 283.14,472.54"/>
        <lane id=":1717907099_0_3" index="3" allow="private emergency authority army vip passenger hov taxi bus coach delivery truck trailer motorcycle evehicle custom1 custom2" speed="25.00" length="8.10" shape="279.79,480.37 279.94,472.54"/>
        <lane id=":1717907099_0_4" index="4" allow="private emergency authority army vip passenger hov taxi bus coach delivery truck trailer motorcycle evehicle custom1 custom2" speed="25.00" length="8.10" shape="276.59,480.24 276.74,472.53"/>
    </edge>
    <edge id=":239906598_0" function="internal">
        <lane id=":239906598_0_0" index="0" allow="private emergency authority army vip passenger hov taxi bus coach delivery truck trailer motorcycle evehicle custom1 custom2" speed="13.89" length="6.31" shape="219.64,660.38 220.65,661.95 221.36,663.04 221.90,664.20 222.44,665.98"/>
    </edge>
    <edge id=":239906598_1" function="internal">
        <lane id=":239906598_1_0" index="0" allow="private emergency authority army vip passenger hov taxi bus coach delivery truck trailer motorcycle evehicle custom1 custom2" speed="13.89" length="6.62" shape="223.10,659.08 223.61,660.95 224.23,662.15 224.90,663.35 225.54,665.20"/>
    </edge>
    <edge id=":243472479_0" function="internal">
        <lane id=":243472479_0_0" index="0" allow="private emergency authority army vip passenger hov taxi bus coach delivery truck trailer motorcycle evehicle custom1 custom2" speed="8.39" length="4.03" shape="486.67,195.56 485.65,195.54 484.95,195.41 484.29,195.11 483.40,194.58"/>
        <lane id=":243472479_0_1" index="1" allow="private emergency authority army vip passenger hov taxi bus coach delivery truck trailer motorcycle evehicle custom1 custom2" speed="9.53" length="4.03" shape="485.99,198.77 484.66,198.72 483.76,198.49 482.92,198.04 481.76,197.33"/>
    </edge>
    <edge id=":243472479_2" function="internal">
        <lane id=":243472479_2_0" index="0" allow="private emergency authority army vip passenger hov taxi bus coach delivery truck trailer motorcycle evehicle custom1 custom2" speed="13.89" length="6.23" shape="486.09,198.29 480.12,200.07"/>
    </edge>
    <edge id=":250326941_0" function="internal">
        <lane id=":250326941_0_0" index="0" allow="private emergency authority army vip passenger hov taxi bus coach delivery truck trailer motorcycle evehicle custom1 custom2" speed="13.89" length="9.29" shape="234.91,474.65 234.23,477.27 233.35,478.93 232.17,480.46 230.56,482.72"/>
    </edge>
    <edge id=":250326941_1" function="internal">
        <lane id=":250326941_1_0" index="0" allow="private emergency authority army vip passenger hov taxi bus coach delivery truck trailer motorcycle evehicle custom1 custom2" speed="13.89" length="9.97" shape="238.06,475.22 237.34,478.05 236.46,479.86 235.32,481.59 233.83,484.16"/>
    </edge>
    <edge id=":250326942_0" function="internal">
        <lane id=":250326942_0_0" index="0" allow="private emergency authority army vip passenger hov taxi bus coach delivery truck trailer motorcycle evehicle custom1 custom2" speed="13.89" length="8.20" shape="212.46,520.38 210.97,522.28 209.65,523.35 208.35,524.42 206.89,526.34"/>
        <lane id=":250326942_0_1" index="1" allow="private emergency authority army vip passenger hov taxi bus coach delivery truck trailer motorcycle evehicle custom1 custom2" speed="13.89" length="8.20" shape="212.46,520.38 211.40,522.54 211.02,524.18 210.65,525.83 209.62,528.00"/>
    </edge>
    <edge id=":250326963_0" function="internal">
        <lane id=":250326963_0_0" index="0" allow="private emergency authority army vip passenger hov taxi bus coach delivery truck trailer motorcycle evehicle custom1 custom2" speed="13.89" length="6.94" shape="369.63,379.48 370.95,377.97 372.17,377.24 373.48,376.58 375.06,375.28"/>
    </edge>
    <edge id=":250326967_0" function="internal">
        <lane id=":250326967_0_0" index="0" allow="private emergency authority army vip passenger hov taxi bus coach delivery truck trailer motorcycle evehicle custom1 custom2" speed="18.05" length="3.14" shape="479.08,298.18 481.87,296.75"/>
    </edge>
    <edge id=":250326967_1" function="internal">
        <lane id=":250326967_1_0" index="0" allow="private emergency authority army vip passenger hov taxi bus coach delivery truck trailer motorcycle evehicle custom1 custom2" speed="18.05" length="3.28" shape="477.58,295.24 480.54,293.84"/>
    </edge>
    <edge id=":250326976_0" function="internal">
        <lane id=":250326976_0_0" index="0" allow="private emergency authority army vip passenger hov taxi bus coach delivery truck trailer motorcycle evehicle custom1 custom2" speed="16.66" length="4.53" shape="292.53,660.75 292.64,659.41 292.82,658.51 293.13,657.64 293.62,656.38"/>
    </edge>
    <edge id=":250326976_1" function="internal">
        <lane id=":250326976_1_0" index="0" allow="private emergency authority army vip passenger hov taxi bus coach delivery truck trailer motorcycle evehicle custom1 custom2" speed="16.66" length="7.76" shape="289.34,660.58 289.51,658.28 289.65,656.70 289.66,655.13 289.46,652.84"/>
    </edge>
    <edge id=":250327026_0" function="internal">
        <lane id=":250327026_0_0" index="0" allow="private emergency authority army vip passenger hov taxi bus coach delivery truck trailer motorcycle evehicle custom1 custom2" speed="13.89" length="14.61" shape="288.46,311.08 285.42,312.62 282.69,314.14 279.46,315.46 274.96,316.40"/>
    </edge>
    <edge id=":250327026_1" function="internal">
        <lane id=":250327026_1_0" index="0" allow="private emergency authority army vip passenger hov taxi bus coach delivery truck trailer motorcycle evehicle custom1 custom2" speed="13.89" length="15.15" shape="289.53,314.38 286.31,315.52 283.43,317.03 280.05,318.51 275.37,319.57"/>
    </edge>
    <edge id=":2577956434_0" function="internal">
        <lane id=":2577956434_0_0" index="0" allow="private emergency authority army vip passenger hov taxi bus coach delivery truck trailer motorcycle evehicle custom1 custom2" speed="19.44" length="0.28" shape="291.21,686.25 291.23,685.94"/>
        <lane id=":2577956434_0_1" index="1" allow="private emergency authority army vip passenger hov taxi bus coach delivery truck trailer motorcycle evehicle custom1 custom2" speed="19.44" length="0.28" shape="288.01,686.03 288.03,685.78"/>
    </edge>
    <edge id=":391220618_0" function="internal">
        <lane id=":391220618_0_0" index="0" allow="private emergency authority army vip passenger hov taxi bus coach delivery truck trailer motorcycle evehicle custom1 custom2" speed="13.89" length="14.89" shape="460.49,242.77 446.86,248.78"/>
    </edge>
    <edge id=":391220618_1" function="internal">
        <lane id=":391220618_1_0" index="0" allow="private emergency authority army vip passenger hov taxi bus coach delivery truck trailer motorcycle evehicle custom1 custom2" speed="13.89" length="7.79" shape="461.79,245.69 454.84,249.21"/>
    </edge>
    <edge id=":391221987_0" function="internal">
        <lane id=":391221987_0_0" index="0" allow="private emergency authority army vip passenger hov taxi bus coach delivery truck trailer motorcycle evehicle custom1 custom2" speed="13.89" length="3.53" shape="212.32,387.34 215.80,386.79"/>
    </edge>
    <edge id=":391221987_1" function="internal">
        <lane id=":391221987_1_0" index="0" allow="private emergency authority army vip passenger hov taxi bus coach delivery truck trailer motorcycle evehicle custom1 custom2" speed="13.89" length="4.20" shape="211.25,383.98 215.44,383.61"/>
    </edge>
    <edge id=":391222629_0" function="internal">
        <lane id=":391222629_0_0" index="0" allow="private emergency authority army vip passenger hov taxi bus coach delivery truck trailer motorcycle evehicle custom1 custom2" speed="13.89" length="7.48" shape="243.26,337.16 241.09,337.35 239.58,337.05 238.07,336.66 235.86,336.58"/>
    </edge>
    <edge id=":391224125_0" function="internal">
        <lane id=":391224125_0_0" index="0" allow="private emergency authority army vip passenger hov taxi bus coach delivery truck trailer motorcycle evehicle custom1 custom2" speed="13.89" length="24.04" shape="348.77,300.19 344.78,302.21 339.74,304.85 333.78,307.72 327.03,310.41"/>
    </edge>
    <edge id=":391224125_1" function="internal">
        <lane id=":391224125_1_0" index="0" allow="private emergency authority army vip passenger hov taxi bus coach delivery truck trailer motorcycle evehicle custom1 custom2" speed="13.89" length="24.25" shape="350.07,303.23 328.08,313.43"/>
    </edge>
    <edge id=":391224424_0" function="internal">
        <lane id=":391224424_0_0" index="0" allow="private emergency authority army vip passenger hov taxi bus coach delivery truck trailer motorcycle evehicle custom1 custom2" speed="18.05" length="3.34" shape="437.96,269.03 434.91,270.39"/>
    </edge>
    <edge id=":391224424_1" function="internal">
        <lane id=":391224424_1_0" index="0" allow="private emergency authority army vip passenger hov taxi bus coach delivery truck trailer motorcycle evehicle custom1 custom2" speed="22.22" length="3.36" shape="439.36,271.91 436.18,273.61"/>
        <lane id=":391224424_1_1" index="1" allow="private emergency authority army vip passenger hov taxi bus coach delivery truck trailer motorcycle evehicle custom1 custom2" speed="22.22" length="3.36" shape="440.76,274.79 437.79,276.37"/>
        <lane id=":391224424_1_2" index="2" allow="private emergency authority army vip passenger hov taxi bus coach delivery truck trailer motorcycle evehicle custom1 custom2" speed="22.22" length="3.36" shape="442.15,277.67 439.40,279.13"/>
    </edge>
    <edge id=":391247221_0" function="internal">
        <lane id=":391247221_0_0" index="0" allow="private emergency authority army vip passenger hov taxi bus coach delivery truck trailer motorcycle evehicle custom1 custom2" speed="13.89" length="55.74" shape="429.00,337.72 479.80,314.77"/>
    </edge>
    <edge id=":391247221_1" function="internal">
        <lane id=":391247221_1_0" index="0" allow="private emergency authority army vip passenger hov taxi bus coach delivery truck trailer motorcycle evehicle custom1 custom2" speed="13.89" length="55.57" shape="427.60,334.41 438.48,330.56 453.91,325.07 469.24,319.34 479.80,314.77"/>
        <lane id=":391247221_1_1" index="1" allow="private emergency authority army vip passenger hov taxi bus coach delivery truck trailer motorcycle evehicle custom1 custom2" speed="13.89" length="55.57" shape="426.50,331.41 437.32,327.58 452.61,322.15 467.80,316.48 478.30,311.95"/>
    </edge>
    <edge id=":4723233791_0" function="internal">
        <lane id=":4723233791_0_0" index="0" allow="private emergency authority army vip passenger hov taxi bus coach delivery truck trailer motorcycle evehicle custom1 custom2" speed="13.89" length="0.10" shape="39.62,366.56 39.62,366.56"/>
    </edge>
    <edge id=":5981007169_0" function="internal">
        <lane id=":5981007169_0_0" index="0" allow="private emergency authority army vip passenger hov taxi bus coach delivery truck trailer motorcycle evehicle custom1 custom2" speed="13.89" length="0.10" shape="519.93,216.23 519.93,216.23"/>
        <lane id=":5981007169_0_1" index="1" allow="private emergency authority army vip passenger hov taxi bus coach delivery truck trailer motorcycle evehicle custom1 custom2" speed="13.89" length="0.10" shape="521.23,219.15 521.23,219.15"/>
    </edge>
    <edge id=":6014240138_0" function="internal">
        <lane id=":6014240138_0_0" index="0" allow="private emergency authority army vip passenger hov taxi bus coach delivery truck trailer motorcycle evehicle custom1 custom2" speed="25.00" length="8.20" shape="252.01,637.20 251.68,639.56 251.07,641.12 250.45,642.68 250.08,645.03"/>
        <lane id=":6014240138_0_1" index="1" allow="private emergency authority army vip passenger hov taxi bus coach delivery truck trailer motorcycle evehicle custom1 custom2" speed="25.00" length="8.20" shape="255.21,637.31 254.88,639.68 254.27,641.25 253.64,642.82 253.27,645.19"/>
        <lane id=":6014240138_0_2" index="2" allow="private emergency authority army vip passenger hov taxi bus coach delivery truck trailer motorcycle evehicle custom1 custom2" speed="25.00" length="8.20" shape="258.41,637.42 258.07,639.81 257.46,641.39 256.84,642.97 256.47,645.35"/>
        <lane id=":6014240138_0_3" index="3" allow="private emergency authority army vip passenger hov taxi bus coach delivery truck trailer motorcycle evehicle custom1 custom2" speed="25.00" length="8.20" shape="261.60,637.53 261.27,639.93 260.66,641.52 260.04,643.11 259.67,645.51"/>
        <lane id=":6014240138_0_4" index="4" allow="private emergency authority army vip passenger hov taxi bus coach delivery truck trailer motorcycle evehicle custom1 custom2" speed="25.00" length="8.20" shape="261.60,637.53 261.77,639.96 262.26,641.60 262.73,643.24 262.86,645.67"/>
    </edge>
    <edge id=":652553046-AddedOffRampNode_0" function="internal">
        <lane id=":652553046-AddedOffRampNode_0_0" index="0" allow="private emergency authority army vip passenger hov taxi bus coach delivery truck trailer motorcycle evehicle custom1 custom2" speed="25.00" length="8.14" shape="247.41,181.10 247.48,183.56 246.73,185.26 245.93,186.97 245.86,189.46"/>
        <lane id=":652553046-AddedOffRampNode_0_1" index="1" allow="private emergency authority army vip passenger hov taxi bus coach delivery truck trailer motorcycle evehicle custom1 custom2" speed="25.00" length="8.14" shape="247.41,181.10 249.02,188.91"/>
        <lane id=":652553046-AddedOffRampNode_0_2" index="2" allow="private emergency authority army vip passenger hov taxi bus coach delivery truck trailer motorcycle evehicle custom1 custom2" speed="25.00" length="8.14" shape="250.56,180.51 252.17,188.35"/>
        <lane id=":652553046-AddedOffRampNode_0_3" index="3" allow="private emergency authority army vip passenger hov taxi bus coach delivery truck trailer motorcycle evehicle custom1 custom2" speed="25.00" length="8.14" shape="253.71,179.92 255.32,187.79"/>
        <lane id=":652553046-AddedOffRampNode_0_4" index="4" allow="private emergency authority army vip passenger hov taxi bus coach delivery truck trailer motorcycle evehicle custom1 custom2" speed="25.00" length="8.14" shape="256.86,179.34 258.47,187.23"/>
        <lane id=":652553046-AddedOffRampNode_0_5" index="5" allow="private emergency authority army vip passenger hov taxi bus coach delivery truck trailer motorcycle evehicle custom1 custom2" speed="25.00" length="8.14" shape="260.01,178.75 261.62,186.68"/>
    </edge>
    <edge id=":6690183796_0" function="internal">
        <lane id=":6690183796_0_0" index="0" allow="private emergency authority army vip passenger hov taxi bus coach delivery truck trailer motorcycle evehicle custom1 custom2" speed="13.89" length="8.20" shape="471.17,191.27 469.19,189.93 468.05,188.69 466.92,187.44 464.97,186.05"/>
        <lane id=":6690183796_0_1" index="1" allow="private emergency authority army vip passenger hov taxi bus coach delivery truck trailer motorcycle evehicle custom1 custom2" speed="13.89" length="8.20" shape="469.66,194.10 467.66,192.75 466.51,191.50 465.37,190.23 463.39,188.83"/>
    </edge>

    <edge id="159684313" from="391247221" to="391246724" name="Jalan Toa Payoh" priority="9" type="highway.motorway_link" spreadType="center" shape="475.32,315.34 504.43,299.90 582.36,262.64 667.79,229.80">
        <lane id="159684313_0" index="0" allow="private emergency authority army vip passenger hov taxi bus coach delivery truck trailer motorcycle evehicle custom1 custom2" speed="13.89" length="206.63" shape="479.80,314.77 505.15,301.33 582.99,264.11 668.36,231.29">
            <param key="origId" value="159684313"/>
        </lane>
        <lane id="159684313_1" index="1" allow="private emergency authority army vip passenger hov taxi bus coach delivery truck trailer motorcycle evehicle custom1 custom2" speed="13.89" length="206.63" shape="478.30,311.95 503.71,298.47 581.73,261.17 667.22,228.31">
            <param key="origId" value="159684313"/>
        </lane>
    </edge>
    <edge id="174552497" from="391221987" to="391247221" priority="9" type="highway.motorway_link" spreadType="center" shape="235.19,382.97 303.44,375.18 329.21,368.53 420.68,335.23 460.14,320.86 475.32,315.34">
        <lane id="174552497_0" index="0" allow="private emergency authority army vip passenger hov taxi bus coach delivery truck trailer motorcycle evehicle custom1 custom2" speed="13.89" length="219.13" shape="215.80,386.79 303.73,376.76 329.68,370.06 421.23,336.73 427.60,334.41">
            <param key="origId" value="174552497 479176307 540558357 540558354"/>
        </lane>
        <lane id="174552497_1" index="1" allow="private emergency authority army vip passenger hov taxi bus coach delivery truck trailer motorcycle evehicle custom1 custom2" speed="13.89" length="219.13" shape="215.44,383.61 303.15,373.60 328.74,367.00 420.13,333.73 426.50,331.41">
            <param key="origId" value="174552497 479176307 540558357 540558354"/>
        </lane>
    </edge>
    <edge id="174552513" from="137302641" to="6014240138" name="Central Expressway" priority="14" type="highway.motorway" spreadType="center" shape="265.00,283.01 263.86,519.78 261.51,548.96 258.05,601.13 256.67,641.36">
        <lane id="174552513_0" index="0" allow="private emergency authority army vip passenger hov taxi bus coach delivery truck trailer motorcycle evehicle custom1 custom2" speed="25.00" length="352.44" shape="260.19,285.71 259.06,519.58 256.72,548.61 253.26,600.89 252.01,637.20">
            <param key="origId" value="174552513 406854699"/>
        </lane>
        <lane id="174552513_1" index="1" allow="private emergency authority army vip passenger hov taxi bus coach delivery truck trailer motorcycle evehicle custom1 custom2" speed="25.00" length="352.44" shape="263.39,285.35 262.26,519.71 259.91,548.84 256.45,601.05 255.21,637.31">
            <param key="origId" value="174552513 406854699"/>
        </lane>
        <lane id="174552513_2" index="2" allow="private emergency authority army vip passenger hov taxi bus coach delivery truck trailer motorcycle evehicle custom1 custom2" speed="25.00" length="352.44" shape="266.59,284.98 265.46,519.85 263.11,549.08 259.65,601.21 258.41,637.42">
            <param key="origId" value="174552513 406854699"/>
        </lane>
        <lane id="174552513_3" index="3" allow="private emergency authority army vip passenger hov taxi bus coach delivery truck trailer motorcycle evehicle custom1 custom2" speed="25.00" length="352.44" shape="269.79,284.61 268.66,519.98 266.30,549.31 262.84,601.37 261.60,637.53">
            <param key="origId" value="174552513 406854699"/>
        </lane>
        <param key="ref" value="CTE"/>
    </edge>
    <edge id="174552517" from="243472479" to="6690183796" priority="9" type="highway.motorway_link" spreadType="center" shape="481.60,197.23 475.39,193.52 467.65,189.40">
        <lane id="174552517_0" index="0" allow="private emergency authority army vip passenger hov taxi bus coach delivery truck trailer motorcycle evehicle custom1 custom2" speed="13.89" length="12.21" shape="483.40,194.58 476.96,190.73 472.67,188.45">
            <param key="origId" value="174552517 159680989"/>
        </lane>
        <lane id="174552517_1" index="1" allow="private emergency authority army vip passenger hov taxi bus coach delivery truck trailer motorcycle evehicle custom1 custom2" speed="13.89" length="12.21" shape="481.76,197.33 475.39,193.52 471.17,191.27">
            <param key="origId" value="174552517 159680989"/>