<?xml version="1.0" encoding="UTF-8"?>

<!-- generated on 2023-07-19 14:58:39 by Eclipse SUMO netconvert Version 1.17.0
<configuration xmlns:xsi="http://www.w3.org/2001/XMLSchema-instance" xsi:noNamespaceSchemaLocation="http://sumo.dlr.de/xsd/netconvertConfiguration.xsd">

    <input>
        <sumo-net-file value="osm.net.xml.gz"/>
    </input>

    <output>
        <output-file value="osm.net.xml"/>
        <output.street-names value="true"/>
    </output>

    <processing>
        <geometry.min-radius.fix.railways value="false"/>
        <geometry.max-grade.fix value="false"/>
        <offset.disable-normalization value="true"/>
        <lefthand value="0"/>
    </processing>

    <junctions>
        <no-turnarounds value="true"/>
        <junctions.corner-detail value="5"/>
        <junctions.limit-turn-speed value="5.50"/>
        <rectangular-lane-cut value="0"/>
    </junctions>

    <pedestrian>
        <walkingareas value="0"/>
    </pedestrian>

</configuration>
-->

<net version="1.16" junctionCornerDetail="5" limitTurnSpeed="5.50" xmlns:xsi="http://www.w3.org/2001/XMLSchema-instance" xsi:noNamespaceSchemaLocation="http://sumo.dlr.de/xsd/net_file.xsd">

    <location netOffset="-362728.10,-155187.82" convBoundary="0.00,0.00,1328.89,1202.92" origBoundary="103.766097,1.403706,103.778040,1.414586" projParameter="+proj=utm +zone=48 +ellps=WGS84 +datum=WGS84 +units=m +no_defs"/>

    <type id="highway.bridleway" priority="1" numLanes="1" speed="2.78" allow="pedestrian" oneway="1" width="2.00"/>
    <type id="highway.bus_guideway" priority="1" numLanes="1" speed="27.78" allow="bus" oneway="1"/>
    <type id="highway.cycleway" priority="1" numLanes="1" speed="5.56" allow="bicycle" oneway="0" width="1.00"/>
    <type id="highway.footway" priority="1" numLanes="1" speed="2.78" allow="pedestrian" oneway="1" width="2.00"/>
    <type id="highway.ford" priority="1" numLanes="1" speed="2.78" allow="army" oneway="0"/>
    <type id="highway.living_street" priority="2" numLanes="1" speed="2.78" disallow="tram rail_urban rail rail_electric rail_fast ship" oneway="0"/>
    <type id="highway.motorway" priority="14" numLanes="2" speed="39.44" allow="private emergency authority army vip passenger hov taxi bus coach delivery truck trailer motorcycle evehicle custom1 custom2" oneway="1"/>
    <type id="highway.motorway_link" priority="9" numLanes="1" speed="22.22" allow="private emergency authority army vip passenger hov taxi bus coach delivery truck trailer motorcycle evehicle custom1 custom2" oneway="1"/>
    <type id="highway.path" priority="1" numLanes="1" speed="5.56" allow="pedestrian bicycle" oneway="0" width="2.00"/>
    <type id="highway.pedestrian" priority="1" numLanes="1" speed="2.78" allow="pedestrian" oneway="1" width="2.00"/>
    <type id="highway.primary" priority="12" numLanes="2" speed="27.78" disallow="tram rail_urban rail rail_electric rail_fast ship" oneway="0"/>
    <type id="highway.primary_link" priority="7" numLanes="1" speed="22.22" disallow="tram rail_urban rail rail_electric rail_fast ship" oneway="0"/>
    <type id="highway.raceway" priority="15" numLanes="2" speed="83.33" allow="vip" oneway="0"/>
    <type id="highway.residential" priority="3" numLanes="1" speed="13.89" disallow="tram rail_urban rail rail_electric rail_fast ship" oneway="0"/>
    <type id="highway.secondary" priority="11" numLanes="1" speed="27.78" disallow="tram rail_urban rail rail_electric rail_fast ship" oneway="0"/>
    <type id="highway.secondary_link" priority="6" numLanes="1" speed="22.22" disallow="tram rail_urban rail rail_electric rail_fast ship" oneway="0"/>
    <type id="highway.service" priority="1" numLanes="1" speed="5.56" allow="pedestrian delivery bicycle" oneway="0"/>
    <type id="highway.stairs" priority="1" numLanes="1" speed="1.39" allow="pedestrian" oneway="1" width="2.00"/>
    <type id="highway.step" priority="1" numLanes="1" speed="1.39" allow="pedestrian" oneway="1" width="2.00"/>
    <type id="highway.steps" priority="1" numLanes="1" speed="1.39" allow="pedestrian" oneway="1" width="2.00"/>
    <type id="highway.tertiary" priority="10" numLanes="1" speed="22.22" disallow="tram rail_urban rail rail_electric rail_fast ship" oneway="0"/>
    <type id="highway.tertiary_link" priority="5" numLanes="1" speed="22.22" disallow="tram rail_urban rail rail_electric rail_fast ship" oneway="0"/>
    <type id="highway.track" priority="1" numLanes="1" speed="5.56" allow="pedestrian motorcycle moped bicycle" oneway="0"/>
    <type id="highway.trunk" priority="13" numLanes="2" speed="27.78" disallow="pedestrian bicycle tram rail_urban rail rail_electric rail_fast ship" oneway="0"/>
    <type id="highway.trunk_link" priority="8" numLanes="1" speed="22.22" disallow="pedestrian bicycle tram rail_urban rail rail_electric rail_fast ship" oneway="0"/>
    <type id="highway.unclassified" priority="4" numLanes="1" speed="13.89" disallow="tram rail_urban rail rail_electric rail_fast ship" oneway="0"/>
    <type id="highway.unsurfaced" priority="1" numLanes="1" speed="8.33" disallow="tram rail_urban rail rail_electric rail_fast ship" oneway="0"/>
    <type id="railway.highspeed" priority="21" numLanes="1" speed="69.44" allow="rail_fast" oneway="1"/>
    <type id="railway.light_rail" priority="19" numLanes="1" speed="27.78" allow="rail_urban" oneway="1"/>
    <type id="railway.preserved" priority="16" numLanes="1" speed="27.78" allow="rail" oneway="1"/>
    <type id="railway.rail" priority="20" numLanes="1" speed="44.44" allow="rail" oneway="1"/>
    <type id="railway.subway" priority="18" numLanes="1" speed="27.78" allow="rail_urban" oneway="1"/>
    <type id="railway.tram" priority="17" numLanes="1" speed="13.89" allow="tram" oneway="1"/>

    <edge id=":157992617_0" function="internal">
        <lane id=":157992617_0_0" index="0" allow="private emergency authority army vip passenger hov taxi bus coach delivery truck trailer motorcycle evehicle custom1 custom2" speed="25.00" length="15.88" shape="603.22,970.87 603.76,965.92 604.70,962.63 605.98,959.38 607.53,954.60"/>
        <lane id=":157992617_0_1" index="1" allow="private emergency authority army vip passenger hov taxi bus coach delivery truck trailer motorcycle evehicle custom1 custom2" speed="25.00" length="15.88" shape="606.42,971.02 606.94,966.28 607.87,963.13 609.12,960.03 610.62,955.44"/>
        <lane id=":157992617_0_2" index="2" allow="private emergency authority army vip passenger hov taxi bus coach delivery truck trailer motorcycle evehicle custom1 custom2" speed="25.00" length="15.88" shape="609.61,971.18 610.13,966.65 611.04,963.63 612.26,960.67 613.70,956.28"/>
        <lane id=":157992617_0_3" index="3" allow="private emergency authority army vip passenger hov taxi bus coach delivery truck trailer motorcycle evehicle custom1 custom2" speed="25.00" length="15.88" shape="612.81,971.34 613.31,967.01 614.21,964.14 615.40,961.31 616.79,957.12"/>
    </edge>
    <edge id=":157992617_4" function="internal">
        <lane id=":157992617_4_0" index="0" allow="private emergency authority army vip passenger hov taxi bus coach delivery truck trailer motorcycle evehicle custom1 custom2" speed="19.45" length="13.60" shape="616.00,971.50 616.31,967.50 616.90,964.79 618.02,962.23 619.92,958.68"/>
        <lane id=":157992617_4_1" index="1" allow="private emergency authority army vip passenger hov taxi bus coach delivery truck trailer motorcycle evehicle custom1 custom2" speed="18.80" length="11.59" shape="619.20,971.65 619.45,968.25 619.92,965.93 620.85,963.74 622.46,960.71"/>
    </edge>
    <edge id=":158014549_0" function="internal">
        <lane id=":158014549_0_0" index="0" allow="private emergency authority army vip passenger hov taxi bus coach delivery truck trailer motorcycle evehicle custom1 custom2" speed="25.00" length="55.86" shape="593.93,946.15 590.98,1001.73"/>
        <lane id=":158014549_0_1" index="1" allow="private emergency authority army vip passenger hov taxi bus coach delivery truck trailer motorcycle evehicle custom1 custom2" speed="25.00" length="55.86" shape="590.73,945.97 587.78,1001.69"/>
        <lane id=":158014549_0_2" index="2" allow="private emergency authority army vip passenger hov taxi bus coach delivery truck trailer motorcycle evehicle custom1 custom2" speed="25.00" length="55.86" shape="587.54,945.80 584.58,1001.65"/>
        <lane id=":158014549_0_3" index="3" allow="private emergency authority army vip passenger hov taxi bus coach delivery truck trailer motorcycle evehicle custom1 custom2" speed="25.00" length="55.86" shape="584.34,945.63 581.38,1001.61"/>
    </edge>
    <edge id=":158014549_4" function="internal">
        <lane id=":158014549_4_0" index="0" allow="private emergency authority army vip passenger hov taxi bus coach delivery truck trailer motorcycle evehicle custom1 custom2" speed="19.45" length="56.07" shape="580.99,945.58 580.70,952.92 579.79,966.07 578.78,982.98 578.18,1001.57"/>
    </edge>
    <edge id=":158015033_0" function="internal">
        <lane id=":158015033_0_0" index="0" allow="private emergency authority army vip passenger hov taxi bus coach delivery truck trailer motorcycle evehicle custom1 custom2" speed="25.00" length="4.58" shape="712.49,296.81 711.20,301.55"/>
        <lane id=":158015033_0_1" index="1" allow="private emergency authority army vip passenger hov taxi bus coach delivery truck trailer motorcycle evehicle custom1 custom2" speed="25.00" length="4.58" shape="709.37,296.09 708.14,300.61"/>
        <lane id=":158015033_0_2" index="2" allow="private emergency authority army vip passenger hov taxi bus coach delivery truck trailer motorcycle evehicle custom1 custom2" speed="25.00" length="4.58" shape="706.25,295.37 705.08,299.68"/>
        <lane id=":158015033_0_3" index="3" allow="private emergency authority army vip passenger hov taxi bus coach delivery truck trailer motorcycle evehicle custom1 custom2" speed="25.00" length="4.58" shape="703.13,294.65 702.02,298.74"/>
    </edge>
    <edge id=":158015033_4" function="internal">
        <lane id=":158015033_4_0" index="0" allow="private emergency authority army vip passenger hov taxi bus coach delivery truck trailer motorcycle evehicle custom1 custom2" speed="7.96" length="3.96" shape="700.02,293.94 699.73,295.07 699.41,295.82 698.90,296.45 698.03,297.23"/>
    </edge>
    <edge id=":1731026789_0" function="internal">
        <lane id=":1731026789_0_0" index="0" disallow="tram rail_urban rail rail_electric rail_fast ship" speed="3.65" length="4.67" shape="958.56,1129.92 958.00,1131.25 957.29,1131.79 956.43,1131.55 955.42,1130.52"/>
    </edge>
    <edge id=":176204413-AddedOnRampNode_0" function="internal">
        <lane id=":176204413-AddedOnRampNode_0_0" index="0" allow="private emergency authority army vip passenger hov taxi bus coach delivery truck trailer motorcycle evehicle custom1 custom2" speed="25.00" length="8.00" shape="586.65,1096.04 586.55,1104.04"/>
        <lane id=":176204413-AddedOnRampNode_0_1" index="1" allow="private emergency authority army vip passenger hov taxi bus coach delivery truck trailer motorcycle evehicle custom1 custom2" speed="25.00" length="8.00" shape="583.45,1096.00 583.35,1104.00"/>
        <lane id=":176204413-AddedOnRampNode_0_2" index="2" allow="private emergency authority army vip passenger hov taxi bus coach delivery truck trailer motorcycle evehicle custom1 custom2" speed="25.00" length="8.00" shape="580.25,1095.96 580.15,1103.96"/>
        <lane id=":176204413-AddedOnRampNode_0_3" index="3" allow="private emergency authority army vip passenger hov taxi bus coach delivery truck trailer motorcycle evehicle custom1 custom2" speed="25.00" length="8.00" shape="577.05,1095.92 576.95,1103.92"/>
    </edge>
    <edge id=":1867272373_0" function="internal">
        <lane id=":1867272373_0_0" index="0" disallow="tram rail_urban rail rail_electric rail_fast ship" speed="19.44" length="8.21" shape="275.55,704.76 273.16,705.01 271.55,705.55 269.94,706.09 267.55,706.33"/>
        <lane id=":1867272373_0_1" index="1" disallow="tram rail_urban rail rail_electric rail_fast ship" speed="19.44" length="8.21" shape="275.57,701.56 273.17,701.81 271.56,702.35 269.96,702.89 267.56,703.13"/>
        <lane id=":1867272373_0_2" index="2" disallow="tram rail_urban rail rail_electric rail_fast ship" speed="19.44" length="8.21" shape="275.58,698.36 273.18,698.61 271.58,699.15 269.97,699.69 267.58,699.93"/>
    </edge>
    <edge id=":1867272384_0" function="internal">
        <lane id=":1867272384_0_0" index="0" disallow="tram rail_urban rail rail_electric rail_fast ship" speed="19.44" length="8.18" shape="242.76,716.88 245.17,716.65 246.79,716.13 248.41,715.61 250.82,715.43"/>
        <lane id=":1867272384_0_1" index="1" disallow="tram rail_urban rail rail_electric rail_fast ship" speed="19.44" length="8.18" shape="242.73,720.08 245.12,719.85 246.73,719.33 248.34,718.81 250.73,718.63"/>
        <lane id=":1867272384_0_2" index="2" disallow="tram rail_urban rail rail_electric rail_fast ship" speed="19.44" length="8.18" shape="242.69,723.28 245.07,723.05 246.67,722.53 248.27,722.01 250.65,721.83"/>
    </edge>
    <edge id=":1867527354_0" function="internal">
        <lane id=":1867527354_0_0" index="0" disallow="pedestrian tram rail_urban rail rail_electric rail_fast ship" speed="11.45" length="6.48" shape="396.45,708.10 394.55,708.25 393.25,708.53 392.06,709.13 390.46,710.18"/>
    </edge>
    <edge id=":1867527354_1" function="internal">
        <lane id=":1867527354_1_0" index="0" disallow="tram rail_urban rail rail_electric rail_fast ship" speed="19.44" length="6.73" shape="396.28,704.90 394.29,705.17 392.95,705.59 391.61,705.99 389.62,706.21"/>
        <lane id=":1867527354_1_1" index="1" disallow="tram rail_urban rail rail_electric rail_fast ship" speed="19.44" length="6.73" shape="396.10,701.71 394.14,701.97 392.82,702.39 391.50,702.79 389.53,703.01"/>
        <lane id=":1867527354_1_2" index="2" disallow="tram rail_urban rail rail_electric rail_fast ship" speed="19.44" length="6.73" shape="395.93,698.51 393.99,698.78 392.69,699.19 391.39,699.59 389.44,699.81"/>
    </edge>
    <edge id=":244169640_0" function="internal">
        <lane id=":244169640_0_0" index="0" disallow="tram rail_urban rail rail_electric rail_fast ship" speed="19.44" length="3.53" shape="498.11,712.66 499.05,712.62 499.69,712.58 500.33,712.50 501.27,712.37"/>
        <lane id=":244169640_0_1" index="1" disallow="tram rail_urban rail rail_electric rail_fast ship" speed="19.44" length="3.53" shape="498.22,715.85 499.27,715.81 499.98,715.77 500.70,715.68 501.73,715.54"/>
        <lane id=":244169640_0_2" index="2" disallow="tram rail_urban rail rail_electric rail_fast ship" speed="19.44" length="3.53" shape="498.33,719.05 499.49,719.01 500.27,718.96 501.06,718.87 502.20,718.70"/>
    </edge>
    <edge id=":244169640_3" function="internal">
        <lane id=":244169640_3_0" index="0" allow="private emergency authority army vip passenger hov taxi bus coach delivery truck trailer motorcycle evehicle custom1 custom2" speed="16.66" length="3.79" shape="498.45,722.25 499.57,722.21 500.34,722.24 501.10,722.37 502.19,722.66"/>
    </edge>
    <edge id=":244169694_0" function="internal">
        <lane id=":244169694_0_0" index="0" disallow="tram rail_urban rail rail_electric rail_fast ship" speed="19.44" length="32.77" shape="707.56,690.41 716.89,688.93 724.01,687.35 731.13,686.33 740.48,686.51"/>
        <lane id=":244169694_0_1" index="1" disallow="tram rail_urban rail rail_electric rail_fast ship" speed="19.44" length="32.77" shape="707.81,693.61 717.06,692.12 723.99,690.54 730.93,689.52 740.20,689.69"/>
        <lane id=":244169694_0_2" index="2" disallow="tram rail_urban rail rail_electric rail_fast ship" speed="19.44" length="32.77" shape="708.06,696.80 717.23,695.32 723.98,693.73 730.73,692.70 739.92,692.88"/>
    </edge>
    <edge id=":244169694_3" function="internal">
        <lane id=":244169694_3_0" index="0" allow="private emergency authority army vip passenger hov taxi bus coach delivery truck trailer motorcycle evehicle custom1 custom2" speed="16.66" length="33.32" shape="709.08,701.49 713.54,698.21 720.55,693.98 729.60,690.56 740.20,689.69"/>
        <lane id=":244169694_3_1" index="1" allow="private emergency authority army vip passenger hov taxi bus coach delivery truck trailer motorcycle evehicle custom1 custom2" speed="16.66" length="33.32" shape="709.08,701.49 713.50,698.71 720.41,695.58 729.36,693.25 739.92,692.88"/>
    </edge>
    <edge id=":244170108_0" function="internal">
        <lane id=":244170108_0_0" index="0" disallow="tram rail_urban rail rail_electric rail_fast ship" speed="19.44" length="12.56" shape="518.25,696.80 514.69,697.01 512.22,696.67 509.75,696.34 506.20,696.58"/>
        <lane id=":244170108_0_1" index="1" disallow="tram rail_urban rail rail_electric rail_fast ship" speed="19.44" length="12.56" shape="518.19,693.57 514.50,693.80 511.94,693.47 509.38,693.16 505.69,693.43"/>
        <lane id=":244170108_0_2" index="2" disallow="tram rail_urban rail rail_electric rail_fast ship" speed="19.44" length="12.56" shape="518.14,690.34 514.31,690.59 511.66,690.28 509.00,689.98 505.18,690.27"/>
    </edge>
    <edge id=":244170108_3" function="internal">
        <lane id=":244170108_3_0" index="0" allow="private emergency authority army vip passenger hov taxi bus coach delivery truck trailer motorcycle evehicle custom1 custom2" speed="16.66" length="13.25" shape="517.24,686.31 514.43,688.08 512.24,690.18 509.67,692.13 505.69,693.43"/>
        <lane id=":244170108_3_1" index="1" allow="private emergency authority army vip passenger hov taxi bus coach delivery truck trailer motorcycle evehicle custom1 custom2" speed="16.66" length="13.25" shape="517.24,686.31 514.29,687.60 511.83,688.63 509.06,689.49 505.18,690.27"/>
    </edge>
    <edge id=":244170247_0" function="internal">
        <lane id=":244170247_0_0" index="0" disallow="tram rail_urban rail rail_electric rail_fast ship" speed="19.44" length="20.06" shape="736.65,678.59 730.84,678.07 726.84,678.09 722.82,678.26 716.97,678.20"/>
        <lane id=":244170247_0_1" index="1" disallow="tram rail_urban rail rail_electric rail_fast ship" speed="19.44" length="20.06" shape="737.05,675.41 731.13,674.88 727.06,674.89 722.97,675.06 717.02,675.00"/>
        <lane id=":244170247_0_2" index="2" disallow="tram rail_urban rail rail_electric rail_fast ship" speed="19.44" length="20.06" shape="737.44,672.24 731.43,671.70 727.28,671.70 723.12,671.86 717.06,671.80"/>
    </edge>
    <edge id=":244170247_3" function="internal">
        <lane id=":244170247_3_0" index="0" allow="private emergency authority army vip passenger hov taxi bus coach delivery truck trailer motorcycle evehicle custom1 custom2" speed="16.66" length="20.05" shape="737.44,672.24 731.51,671.63 727.39,671.08 723.55,669.76 718.47,666.83"/>
        <lane id=":244170247_3_1" index="1" allow="private emergency authority army vip passenger hov taxi bus coach delivery truck trailer motorcycle evehicle custom1 custom2" speed="16.66" length="19.53" shape="737.44,672.24 731.84,671.19 728.21,669.65 724.85,667.36 720.07,664.05"/>
    </edge>
    <edge id=":245573451_0" function="internal">
        <lane id=":245573451_0_0" index="0" allow="private emergency authority army vip passenger hov taxi bus coach delivery truck trailer motorcycle evehicle custom1 custom2" speed="13.89" length="40.62" shape="690.64,635.66 690.73,628.63 690.32,617.25 689.71,604.93 689.17,595.08"/>
    </edge>
    <edge id=":245573451_1" function="internal">
        <lane id=":245573451_1_0" index="0" allow="private emergency authority army vip passenger hov taxi bus coach delivery truck trailer motorcycle evehicle custom1 custom2" speed="13.89" length="39.67" shape="695.04,634.47 693.53,625.55 691.71,614.81 690.09,604.06 689.17,595.08"/>
        <lane id=":245573451_1_1" index="1" allow="private emergency authority army vip passenger hov taxi bus coach delivery truck trailer motorcycle evehicle custom1 custom2" speed="13.89" length="39.67" shape="698.20,633.96 696.69,625.10 694.89,614.48 693.28,603.84 692.37,594.91"/>
    </edge>
    <edge id=":245573453_0" function="internal">
        <lane id=":245573453_0_0" index="0" allow="private emergency authority army vip passenger hov taxi bus coach delivery truck trailer motorcycle evehicle custom1 custom2" speed="13.89" length="7.21" shape="693.77,491.22 693.69,489.09 693.31,487.63 693.01,486.18 693.20,484.10"/>
    </edge>
    <edge id=":245573488_0" function="internal">
        <lane id=":245573488_0_0" index="0" allow="private emergency authority army vip passenger hov taxi bus coach delivery truck trailer motorcycle evehicle custom1 custom2" speed="13.89" length="25.16" shape="567.57,637.13 565.31,643.41 563.99,649.00 562.80,654.63 560.94,661.07"/>
        <lane id=":245573488_0_1" index="1" allow="private emergency authority army vip passenger hov taxi bus coach delivery truck trailer motorcycle evehicle custom1 custom2" speed="13.89" length="25.16" shape="564.64,635.85 562.35,642.21 560.96,647.98 559.71,653.81 557.81,660.32"/>
    </edge>
    <edge id=":245573488_2" function="internal">
        <lane id=":245573488_2_0" index="0" allow="private emergency authority army vip passenger hov taxi bus coach delivery truck trailer motorcycle evehicle custom1 custom2" speed="13.89" length="25.31" shape="564.64,635.85 561.66,642.71 558.81,649.18 556.19,654.71 553.91,658.76"/>
    </edge>
    <edge id=":245573496_0" function="internal">
        <lane id=":245573496_0_0" index="0" allow="private emergency authority army vip passenger hov taxi bus coach delivery truck trailer motorcycle evehicle custom1 custom2" speed="13.89" length="17.25" shape="561.30,741.48 561.80,747.09 561.86,751.45 561.92,755.14 562.39,758.68"/>
    </edge>
    <edge id=":245573496_1" function="internal">
        <lane id=":245573496_1_0" index="0" allow="private emergency authority army vip passenger hov taxi bus coach delivery truck trailer motorcycle evehicle custom1 custom2" speed="13.89" length="17.44" shape="553.38,743.88 555.91,747.18 558.61,750.94 560.94,754.87 562.39,758.68"/>
    </edge>
    <edge id=":245573502_0" function="internal">
        <lane id=":245573502_0_0" index="0" allow="private emergency authority army vip passenger hov taxi bus coach delivery truck trailer motorcycle evehicle custom1 custom2" speed="13.89" length="22.13" shape="672.72,735.50 674.42,731.65 676.13,726.85 677.44,721.03 677.95,714.11"/>
        <lane id=":245573502_0_1" index="1" allow="private emergency authority army vip passenger hov taxi bus coach delivery truck trailer motorcycle evehicle custom1 custom2" speed="13.89" length="22.13" shape="672.72,735.50 674.92,731.86 677.73,727.54 680.14,722.19 681.15,715.48"/>
    </edge>
    <edge id=":245573502_2" function="internal">
        <lane id=":245573502_2_0" index="0" allow="private emergency authority army vip passenger hov taxi bus coach delivery truck trailer motorcycle evehicle custom1 custom2" speed="13.89" length="22.09" shape="672.72,735.50 675.25,731.38 679.07,726.52 683.21,721.90 686.72,718.53"/>
    </edge>
    <edge id=":2584529253_0" function="internal">
        <lane id=":2584529253_0_0" index="0" disallow="pedestrian tram rail_urban rail rail_electric rail_fast ship" speed="5.78" length="9.69" shape="389.24,711.94 388.19,714.52 388.50,716.36 390.17,717.46 393.20,717.82"/>
    </edge>
    <edge id=":2584529253_1" function="internal">
        <lane id=":2584529253_1_0" index="0" disallow="tram rail_urban rail rail_electric rail_fast ship" speed="19.44" length="11.48" shape="381.74,717.81 393.20,717.82"/>
        <lane id=":2584529253_1_1" index="1" disallow="tram rail_urban rail rail_electric rail_fast ship" speed="19.44" length="11.48" shape="381.72,721.01 393.20,721.02"/>
        <lane id=":2584529253_1_2" index="2" disallow="tram rail_urban rail rail_electric rail_fast ship" speed="19.44" length="11.48" shape="381.70,724.21 393.20,724.22"/>
    </edge>
    <edge id=":4734578915_0" function="internal">
        <lane id=":4734578915_0_0" index="0" disallow="tram rail_urban rail rail_electric rail_fast ship" speed="19.44" length="7.94" shape="1074.85,768.50 1072.43,768.35 1070.74,768.59 1069.05,768.79 1066.66,768.48"/>
        <lane id=":4734578915_0_1" index="1" disallow="tram rail_urban rail rail_electric rail_fast ship" speed="19.44" length="7.94" shape="1075.38,765.35 1073.02,765.20 1071.37,765.46 1069.73,765.66 1067.41,765.36"/>
        <lane id=":4734578915_0_2" index="2" disallow="tram rail_urban rail rail_electric rail_fast ship" speed="19.44" length="7.94" shape="1075.90,762.19 1073.61,762.06 1072.01,762.32 1070.41,762.53 1068.15,762.25"/>
        <lane id=":4734578915_0_3" index="3" disallow="tram rail_urban rail rail_electric rail_fast ship" speed="19.44" length="7.94" shape="1075.90,762.19 1073.74,761.57 1072.38,760.76 1071.03,759.90 1068.89,759.14"/>
    </edge>
    <edge id=":5272737434_0" function="internal">
        <lane id=":5272737434_0_0" index="0" disallow="tram rail_urban rail rail_electric rail_fast ship" speed="19.44" length="8.19" shape="941.06,742.00 943.44,742.43 945.14,742.36 946.84,742.30 949.21,742.76"/>
        <lane id=":5272737434_0_1" index="1" disallow="tram rail_urban rail rail_electric rail_fast ship" speed="19.44" length="8.19" shape="940.17,745.07 942.53,745.50 944.22,745.42 945.91,745.36 948.27,745.82"/>
        <lane id=":5272737434_0_2" index="2" disallow="tram rail_urban rail rail_electric rail_fast ship" speed="19.44" length="8.19" shape="939.28,748.15 941.63,748.57 943.31,748.49 944.99,748.42 947.33,748.88"/>
    </edge>
    <edge id=":5272740779_0" function="internal">
        <lane id=":5272740779_0_0" index="0" allow="private emergency authority army vip passenger hov taxi bus coach delivery truck trailer motorcycle evehicle custom1 custom2" speed="13.89" length="0.26" shape="504.12,723.22 504.20,723.24 504.25,723.26 504.30,723.27 504.38,723.28"/>
    </edge>
    <edge id=":6112793697_0" function="internal">
        <lane id=":6112793697_0_0" index="0" disallow="tram rail_urban rail rail_electric rail_fast ship" speed="19.44" length="8.14" shape="903.78,729.37 906.08,729.86 907.73,729.81 909.39,729.73 911.71,730.15"/>
        <lane id=":6112793697_0_1" index="1" disallow="tram rail_urban rail rail_electric rail_fast ship" speed="19.44" length="8.14" shape="903.78,729.37 905.95,730.34 907.29,731.35 908.63,732.32 910.82,733.22"/>
        <lane id=":6112793697_0_2" index="2" disallow="tram rail_urban rail rail_electric rail_fast ship" speed="19.44" length="8.14" shape="902.79,732.41 904.98,733.39 906.34,734.40 907.71,735.39 909.93,736.29"/>
        <lane id=":6112793697_0_3" index="3" disallow="tram rail_urban rail rail_electric rail_fast ship" speed="19.44" length="8.14" shape="901.79,735.45 904.02,736.45 905.40,737.46 906.79,738.45 909.04,739.37"/>
    </edge>
    <edge id=":6117425748_0" function="internal">
        <lane id=":6117425748_0_0" index="0" disallow="tram rail_urban rail rail_electric rail_fast ship" speed="19.44" length="8.21" shape="102.09,709.02 99.71,709.40 98.14,710.03 96.57,710.67 94.18,711.05"/>
        <lane id=":6117425748_0_1" index="1" disallow="tram rail_urban rail rail_electric rail_fast ship" speed="19.44" length="8.21" shape="101.91,705.82 99.53,706.20 97.96,706.84 96.39,707.47 94.01,707.85"/>
        <lane id=":6117425748_0_2" index="2" disallow="tram rail_urban rail rail_electric rail_fast ship" speed="19.44" length="8.21" shape="101.74,702.63 99.36,703.01 97.79,703.64 96.22,704.28 93.84,704.66"/>
        <lane id=":6117425748_0_3" index="3" disallow="tram rail_urban rail rail_electric rail_fast ship" speed="19.44" length="8.21" shape="101.74,702.63 99.33,702.51 97.70,702.05 96.07,701.58 93.67,701.46"/>
    </edge>
    <edge id=":6117425750_0" function="internal">
        <lane id=":6117425750_0_0" index="0" disallow="tram rail_urban rail rail_electric rail_fast ship" speed="19.44" length="8.21" shape="341.27,706.56 338.87,706.81 337.26,707.36 335.66,707.90 333.25,708.15"/>
        <lane id=":6117425750_0_1" index="1" disallow="tram rail_urban rail rail_electric rail_fast ship" speed="19.44" length="8.21" shape="341.27,706.56 338.87,706.31 337.27,705.76 335.66,705.20 333.27,704.95"/>
        <lane id=":6117425750_0_2" index="2" disallow="tram rail_urban rail rail_electric rail_fast ship" speed="19.44" length="8.21" shape="341.27,703.36 338.87,703.11 337.27,702.56 335.67,702.00 333.28,701.75"/>
        <lane id=":6117425750_0_3" index="3" disallow="tram rail_urban rail rail_electric rail_fast ship" speed="19.44" length="8.21" shape="341.27,700.16 338.88,699.91 337.28,699.36 335.68,698.80 333.29,698.55"/>
    </edge>
    <edge id=":6117425751_0" function="internal">
        <lane id=":6117425751_0_0" index="0" disallow="tram rail_urban rail rail_electric rail_fast ship" speed="19.44" length="8.07" shape="464.86,702.55 462.48,703.07 460.92,703.77 459.35,704.43 456.96,704.82"/>
        <lane id=":6117425751_0_1" index="1" disallow="tram rail_urban rail rail_electric rail_fast ship" speed="19.44" length="8.07" shape="464.86,702.55 462.47,702.57 460.83,702.17 459.19,701.74 456.79,701.62"/>
        <lane id=":6117425751_0_2" index="2" disallow="tram rail_urban rail rail_electric rail_fast ship" speed="19.44" length="8.07" shape="464.50,699.37 462.16,699.38 460.56,698.98 458.96,698.54 456.61,698.42"/>
        <lane id=":6117425751_0_3" index="3" disallow="tram rail_urban rail rail_electric rail_fast ship" speed="19.44" length="8.07" shape="464.14,696.19 461.86,696.19 460.30,695.79 458.74,695.35 456.44,695.23"/>
    </edge>
    <edge id=":6139129380_0" function="internal">