<?xml version="1.0" encoding="UTF-8"?>

<!-- generated on 2023-07-17 16:27:15 by Eclipse SUMO netconvert Version 1.17.0
<configuration xmlns:xsi="http://www.w3.org/2001/XMLSchema-instance" xsi:noNamespaceSchemaLocation="http://sumo.dlr.de/xsd/netconvertConfiguration.xsd">

    <input>
        <sumo-net-file value="osm.net.xml.gz"/>
    </input>

    <output>
        <output-file value="osm.net.xml"/>
        <output.street-names value="true"/>
    </output>

    <processing>
        <geometry.min-radius.fix.railways value="false"/>
        <geometry.max-grade.fix value="false"/>
        <offset.disable-normalization value="true"/>
        <lefthand value="1"/>
    </processing>

    <junctions>
        <no-turnarounds value="true"/>
        <junctions.corner-detail value="5"/>
        <junctions.limit-turn-speed value="5.50"/>
        <rectangular-lane-cut value="0"/>
    </junctions>

    <pedestrian>
        <walkingareas value="0"/>
    </pedestrian>

</configuration>
-->

<net version="1.16" junctionCornerDetail="5" lefthand="true" limitTurnSpeed="5.50" xmlns:xsi="http://www.w3.org/2001/XMLSchema-instance" xsi:noNamespaceSchemaLocation="http://sumo.dlr.de/xsd/net_file.xsd">

    <location netOffset="-371187.29,-141379.84" convBoundary="0.00,0.00,433.18,401.28" origBoundary="103.842185,1.278843,103.846077,1.282474" projParameter="+proj=utm +zone=48 +ellps=WGS84 +datum=WGS84 +units=m +no_defs"/>

    <type id="highway.bridleway" priority="1" numLanes="1" speed="2.78" allow="pedestrian" oneway="1" width="2.00"/>
    <type id="highway.bus_guideway" priority="1" numLanes="1" speed="27.78" allow="bus" oneway="1"/>
    <type id="highway.cycleway" priority="1" numLanes="1" speed="5.56" allow="bicycle" oneway="0" width="1.00"/>
    <type id="highway.footway" priority="1" numLanes="1" speed="2.78" allow="pedestrian" oneway="1" width="2.00"/>
    <type id="highway.ford" priority="1" numLanes="1" speed="2.78" allow="army" oneway="0"/>
    <type id="highway.living_street" priority="2" numLanes="1" speed="2.78" disallow="tram rail_urban rail rail_electric rail_fast ship" oneway="0"/>
    <type id="highway.motorway" priority="14" numLanes="2" speed="39.44" allow="private emergency authority army vip passenger hov taxi bus coach delivery truck trailer motorcycle evehicle custom1 custom2" oneway="1"/>
    <type id="highway.motorway_link" priority="9" numLanes="1" speed="22.22" allow="private emergency authority army vip passenger hov taxi bus coach delivery truck trailer motorcycle evehicle custom1 custom2" oneway="1"/>
    <type id="highway.path" priority="1" numLanes="1" speed="5.56" allow="pedestrian bicycle" oneway="0" width="2.00"/>
    <type id="highway.pedestrian" priority="1" numLanes="1" speed="2.78" allow="pedestrian" oneway="1" width="2.00"/>
    <type id="highway.primary" priority="12" numLanes="2" speed="27.78" disallow="tram rail_urban rail rail_electric rail_fast ship" oneway="0"/>
    <type id="highway.primary_link" priority="7" numLanes="1" speed="22.22" disallow="tram rail_urban rail rail_electric rail_fast ship" oneway="0"/>
    <type id="highway.raceway" priority="15" numLanes="2" speed="83.33" allow="vip" oneway="0"/>
    <type id="highway.residential" priority="3" numLanes="1" speed="13.89" disallow="tram rail_urban rail rail_electric rail_fast ship" oneway="0"/>
    <type id="highway.secondary" priority="11" numLanes="1" speed="27.78" disallow="tram rail_urban rail rail_electric rail_fast ship" oneway="0"/>
    <type id="highway.secondary_link" priority="6" numLanes="1" speed="22.22" disallow="tram rail_urban rail rail_electric rail_fast ship" oneway="0"/>
    <type id="highway.service" priority="1" numLanes="1" speed="5.56" allow="pedestrian delivery bicycle" oneway="0"/>
    <type id="highway.stairs" priority="1" numLanes="1" speed="1.39" allow="pedestrian" oneway="1" width="2.00"/>
    <type id="highway.step" priority="1" numLanes="1" speed="1.39" allow="pedestrian" oneway="1" width="2.00"/>
    <type id="highway.steps" priority="1" numLanes="1" speed="1.39" allow="pedestrian" oneway="1" width="2.00"/>
    <type id="highway.tertiary" priority="10" numLanes="1" speed="22.22" disallow="tram rail_urban rail rail_electric rail_fast ship" oneway="0"/>
    <type id="highway.tertiary_link" priority="5" numLanes="1" speed="22.22" disallow="tram rail_urban rail rail_electric rail_fast ship" oneway="0"/>
    <type id="highway.track" priority="1" numLanes="1" speed="5.56" allow="pedestrian motorcycle moped bicycle" oneway="0"/>
    <type id="highway.trunk" priority="13" numLanes="2" speed="27.78" disallow="pedestrian bicycle tram rail_urban rail rail_electric rail_fast ship" oneway="0"/>
    <type id="highway.trunk_link" priority="8" numLanes="1" speed="22.22" disallow="pedestrian bicycle tram rail_urban rail rail_electric rail_fast ship" oneway="0"/>
    <type id="highway.unclassified" priority="4" numLanes="1" speed="13.89" disallow="tram rail_urban rail rail_electric rail_fast ship" oneway="0"/>
    <type id="highway.unsurfaced" priority="1" numLanes="1" speed="8.33" disallow="tram rail_urban rail rail_electric rail_fast ship" oneway="0"/>
    <type id="railway.highspeed" priority="21" numLanes="1" speed="69.44" allow="rail_fast" oneway="1"/>
    <type id="railway.light_rail" priority="19" numLanes="1" speed="27.78" allow="rail_urban" oneway="1"/>
    <type id="railway.preserved" priority="16" numLanes="1" speed="27.78" allow="rail" oneway="1"/>
    <type id="railway.rail" priority="20" numLanes="1" speed="44.44" allow="rail" oneway="1"/>
    <type id="railway.subway" priority="18" numLanes="1" speed="27.78" allow="rail_urban" oneway="1"/>
    <type id="railway.tram" priority="17" numLanes="1" speed="13.89" allow="tram" oneway="1"/>

    <edge id=":1318603861_0" function="internal">
        <lane id=":1318603861_0_0" index="0" disallow="tram rail_urban rail rail_electric rail_fast ship" speed="6.63" length="6.81" shape="414.42,212.21 415.27,213.79 415.56,215.37 415.31,216.96 414.52,218.57"/>
    </edge>
    <edge id=":1629037202_0" function="internal">
        <lane id=":1629037202_0_0" index="0" disallow="tram rail_urban rail rail_electric rail_fast ship" speed="5.62" length="9.13" shape="221.45,156.39 219.36,158.09 217.60,158.36 216.16,157.21 215.03,154.64"/>
    </edge>
    <edge id=":1629037202_1" function="internal">
        <lane id=":1629037202_1_0" index="0" disallow="tram rail_urban rail rail_electric rail_fast ship" speed="13.89" length="13.57" shape="221.45,156.39 218.61,159.26 216.48,161.02 214.21,162.63 210.95,165.04"/>
        <lane id=":1629037202_1_1" index="1" disallow="tram rail_urban rail rail_electric rail_fast ship" speed="13.89" length="13.57" shape="223.39,159.00 220.56,161.84 218.43,163.59 216.16,165.18 212.91,167.57"/>
        <lane id=":1629037202_1_2" index="2" disallow="tram rail_urban rail rail_electric rail_fast ship" speed="13.89" length="13.57" shape="225.34,161.60 222.52,164.43 220.39,166.15 218.11,167.72 214.88,170.10"/>
    </edge>
    <edge id=":1629037202_4" function="internal">
        <lane id=":1629037202_4_0" index="0" disallow="tram rail_urban rail rail_electric rail_fast ship" speed="13.89" length="15.68" shape="221.82,167.76 218.92,164.44 217.31,161.84 216.26,158.92 215.03,154.64"/>
        <lane id=":1629037202_4_1" index="1" disallow="tram rail_urban rail rail_electric rail_fast ship" speed="13.89" length="15.68" shape="219.48,169.95 216.32,166.35 214.54,163.54 213.37,160.38 212.02,155.73"/>
    </edge>
    <edge id=":1629037202_6" function="internal">
        <lane id=":1629037202_6_0" index="0" disallow="tram rail_urban rail rail_electric rail_fast ship" speed="6.25" length="0.84" shape="219.48,169.95 218.87,169.39"/>
        <lane id=":1629037202_6_1" index="1" disallow="tram rail_urban rail rail_electric rail_fast ship" speed="5.26" length="0.77" shape="219.48,169.95 218.87,169.49"/>
    </edge>
    <edge id=":1629037202_8" function="internal">
        <lane id=":1629037202_8_0" index="0" disallow="tram rail_urban rail rail_electric rail_fast ship" speed="6.25" length="6.82" shape="218.87,169.39 217.55,168.18 215.81,167.19 214.26,166.99 212.91,167.57"/>
    </edge>
    <edge id=":1629037202_9" function="internal">
        <lane id=":1629037202_9_0" index="0" disallow="tram rail_urban rail rail_electric rail_fast ship" speed="5.26" length="4.37" shape="218.87,169.49 218.50,169.22 217.40,169.00 216.19,169.29 214.88,170.10"/>
    </edge>
    <edge id=":1829431181_0" function="internal">
        <lane id=":1829431181_0_0" index="0" disallow="tram rail_urban rail rail_electric rail_fast ship" speed="3.65" length="4.67" shape="201.67,283.45 202.35,282.17 202.32,281.28 201.58,280.76 200.15,280.63"/>
    </edge>
    <edge id=":1837448830_0" function="internal">
        <lane id=":1837448830_0_0" index="0" disallow="tram rail_urban rail rail_electric rail_fast ship" speed="6.90" length="1.29" shape="404.92,340.33 404.31,341.47"/>
    </edge>
    <edge id=":1837448830_3" function="internal">
        <lane id=":1837448830_3_0" index="0" disallow="tram rail_urban rail rail_electric rail_fast ship" speed="6.90" length="7.00" shape="404.31,341.47 404.13,341.81 404.06,343.57 404.71,345.62 406.07,347.96"/>
    </edge>
    <edge id=":1837448830_1" function="internal">
        <lane id=":1837448830_1_0" index="0" disallow="tram rail_urban rail rail_electric rail_fast ship" speed="13.89" length="9.57" shape="400.56,340.13 406.07,347.96"/>
    </edge>
    <edge id=":1837448830_2" function="internal">
        <lane id=":1837448830_2_0" index="0" disallow="tram rail_urban rail rail_electric rail_fast ship" speed="5.88" length="8.49" shape="400.56,340.13 402.47,342.36 404.24,343.48 405.86,343.50 407.35,342.42"/>
    </edge>
    <edge id=":237089753_0" function="internal">
        <lane id=":237089753_0_0" index="0" disallow="tram rail_urban rail rail_electric rail_fast ship" speed="13.89" length="12.96" shape="210.80,165.16 207.89,167.71 206.17,169.75 204.52,171.87 201.83,174.68"/>
        <lane id=":237089753_0_1" index="1" disallow="tram rail_urban rail rail_electric rail_fast ship" speed="13.89" length="12.96" shape="212.76,167.69 209.92,170.19 208.24,172.19 206.64,174.27 204.02,177.02"/>
    </edge>
    <edge id=":237089753_2" function="internal">
        <lane id=":237089753_2_0" index="0" disallow="tram rail_urban rail rail_electric rail_fast ship" speed="3.67" length="4.35" shape="214.72,170.22 214.39,171.13 214.69,172.38 215.39,173.38 216.23,173.59"/>
    </edge>
    <edge id=":237089753_3" function="internal">
        <lane id=":237089753_3_0" index="0" disallow="tram rail_urban rail rail_electric rail_fast ship" speed="8.45" length="10.42" shape="202.18,164.70 203.02,168.14 203.25,170.95 202.85,173.13 201.83,174.68"/>
    </edge>
    <edge id=":237089753_4" function="internal">
        <lane id=":237089753_4_0" index="0" disallow="tram rail_urban rail rail_electric rail_fast ship" speed="9.77" length="2.99" shape="205.24,163.77 206.44,166.50"/>
    </edge>
    <edge id=":237089753_5" function="internal">
        <lane id=":237089753_5_0" index="0" disallow="tram rail_urban rail rail_electric rail_fast ship" speed="9.77" length="14.06" shape="206.44,166.50 207.10,168.00 209.84,172.18 212.89,175.36 215.64,176.60"/>
    </edge>
    <edge id=":243668566_0" function="internal">
        <lane id=":243668566_0_0" index="0" disallow="tram rail_urban rail rail_electric rail_fast ship" speed="3.91" length="2.52" shape="18.35,348.43 18.10,347.79 18.12,347.21 18.40,346.71 18.94,346.28"/>
    </edge>
    <edge id=":246800771_0" function="internal">
        <lane id=":246800771_0_0" index="0" disallow="tram rail_urban rail rail_electric rail_fast ship" speed="4.43" length="3.69" shape="291.42,281.11 290.75,280.11 290.48,279.24 290.60,278.49 291.12,277.87"/>
    </edge>
    <edge id=":246800771_1" function="internal">
        <lane id=":246800771_1_0" index="0" disallow="tram rail_urban rail rail_electric rail_fast ship" speed="13.89" length="8.62" shape="291.42,281.11 286.47,274.28"/>
        <lane id=":246800771_1_1" index="1" disallow="tram rail_urban rail rail_electric rail_fast ship" speed="13.89" length="8.62" shape="289.00,283.21 283.83,276.09"/>
    </edge>
    <edge id=":246800772_0" function="internal">
        <lane id=":246800772_0_0" index="0" disallow="tram rail_urban rail rail_electric rail_fast ship" speed="6.96" length="10.16" shape="163.61,251.91 160.76,253.18 158.32,253.44 156.27,252.69 154.62,250.93"/>
    </edge>
    <edge id=":246800772_1" function="internal">
        <lane id=":246800772_1_0" index="0" disallow="tram rail_urban rail rail_electric rail_fast ship" speed="7.24" length="11.48" shape="163.61,251.91 160.51,254.11 158.70,256.35 158.16,258.64 158.91,260.97"/>
    </edge>
    <edge id=":246800772_2" function="internal">
        <lane id=":246800772_2_0" index="0" disallow="tram rail_urban rail rail_electric rail_fast ship" speed="13.89" length="11.01" shape="161.67,259.35 159.87,256.81 158.20,255.10 156.50,253.42 154.62,250.93"/>
    </edge>
    <edge id=":246800772_3" function="internal">
        <lane id=":246800772_3_0" index="0" disallow="tram rail_urban rail rail_electric rail_fast ship" speed="3.65" length="1.23" shape="161.67,259.35 160.56,258.81"/>
    </edge>
    <edge id=":246800772_4" function="internal">
        <lane id=":246800772_4_0" index="0" disallow="tram rail_urban rail rail_electric rail_fast ship" speed="3.65" length="3.44" shape="160.56,258.81 160.37,258.72 159.47,258.78 158.99,259.53 158.91,260.97"/>
    </edge>
    <edge id=":246800789_0" function="internal">
        <lane id=":246800789_0_0" index="0" disallow="tram rail_urban rail rail_electric rail_fast ship" speed="7.18" length="6.01" shape="131.30,214.45 130.53,212.96 130.13,211.51 130.12,210.10 130.50,208.73"/>
    </edge>
    <edge id=":246800789_1" function="internal">
        <lane id=":246800789_1_0" index="0" disallow="tram rail_urban rail rail_electric rail_fast ship" speed="9.41" length="6.36" shape="126.22,213.15 127.86,212.23 128.93,211.45 129.71,210.41 130.50,208.73"/>
    </edge>
    <edge id=":246806289_0" function="internal">
        <lane id=":246806289_0_0" index="0" disallow="tram rail_urban rail rail_electric rail_fast ship" speed="13.89" length="15.67" shape="372.87,160.33 369.92,157.84 366.83,155.34 363.65,152.94 360.46,150.79"/>
    </edge>
    <edge id=":246806289_1" function="internal">
        <lane id=":246806289_1_0" index="0" disallow="tram rail_urban rail rail_electric rail_fast ship" speed="5.93" length="9.17" shape="363.54,164.32 364.85,162.04 366.47,161.00 368.40,161.20 370.65,162.65"/>
    </edge>
    <edge id=":246806289_2" function="internal">
        <lane id=":246806289_2_0" index="0" disallow="tram rail_urban rail rail_electric rail_fast ship" speed="8.31" length="13.23" shape="360.56,163.13 362.02,158.68 362.49,155.14 361.97,152.51 360.46,150.79"/>
    </edge>
    <edge id=":246806289_3" function="internal">
        <lane id=":246806289_3_0" index="0" disallow="tram rail_urban rail rail_electric rail_fast ship" speed="13.89" length="15.01" shape="358.76,153.50 361.87,155.59 364.87,157.85 367.78,160.22 370.65,162.65"/>
    </edge>
    <edge id=":246806296_0" function="internal">
        <lane id=":246806296_0_0" index="0" disallow="tram rail_urban rail rail_electric rail_fast ship" speed="7.33" length="5.37" shape="369.86,291.20 369.13,292.32 368.19,293.22 367.06,293.90 365.72,294.35"/>
    </edge>
    <edge id=":246806296_1" function="internal">
        <lane id=":246806296_1_0" index="0" disallow="tram rail_urban rail rail_electric rail_fast ship" speed="6.32" length="5.19" shape="369.86,291.20 369.41,292.43 369.32,293.66 369.59,294.89 370.23,296.12"/>
    </edge>
    <edge id=":249690363_0" function="internal">
        <lane id=":249690363_0_0" index="0" disallow="tram rail_urban rail rail_electric rail_fast ship" speed="8.21" length="14.51" shape="329.15,308.95 324.41,311.10 320.62,311.95 317.79,311.51 315.90,309.78"/>
        <lane id=":249690363_0_1" index="1" disallow="tram rail_urban rail rail_electric rail_fast ship" speed="8.93" length="17.37" shape="329.15,308.95 323.18,311.77 318.52,313.12 315.18,313.00 313.15,311.41"/>
    </edge>
    <edge id=":249690363_2" function="internal">
        <lane id=":249690363_2_0" index="0" allow="bus bicycle" speed="9.40" length="20.46" shape="329.15,308.95 322.31,313.05 317.86,316.72 315.80,319.98 316.12,322.82"/>
    </edge>
    <edge id=":249690363_3" function="internal">
        <lane id=":249690363_3_0" index="0" disallow="tram rail_urban rail rail_electric rail_fast ship" speed="13.89" length="13.55" shape="327.20,316.40 324.52,313.77 321.57,313.08 318.61,312.39 315.90,309.78"/>
        <lane id=":249690363_3_1" index="1" disallow="tram rail_urban rail rail_electric rail_fast ship" speed="13.89" length="13.55" shape="324.43,318.01 321.75,315.38 318.81,314.70 315.86,314.02 313.15,311.41"/>
        <lane id=":249690363_3_2" index="2" disallow="tram rail_urban rail rail_electric rail_fast ship" speed="13.89" length="13.55" shape="321.66,319.61 318.99,316.99 316.05,316.31 313.10,315.64 310.40,313.04"/>
        <lane id=":249690363_3_3" index="3" disallow="tram rail_urban rail rail_electric rail_fast ship" speed="13.89" length="13.55" shape="318.89,321.21 316.22,318.60 313.29,317.93 310.34,317.26 307.64,314.67"/>
    </edge>
    <edge id=":249690363_7" function="internal">
        <lane id=":249690363_7_0" index="0" allow="bus bicycle" speed="3.65" length="4.67" shape="318.89,321.21 317.60,320.58 316.70,320.63 316.21,321.38 316.12,322.82"/>
    </edge>
    <edge id=":249797239_0" function="internal">
        <lane id=":249797239_0_0" index="0" disallow="tram rail_urban rail rail_electric rail_fast ship" speed="6.97" length="10.35" shape="105.81,230.53 105.10,228.19 105.49,226.01 107.00,224.02 109.62,222.20"/>
    </edge>
    <edge id=":249797239_1" function="internal">
        <lane id=":249797239_1_0" index="0" disallow="tram rail_urban rail rail_electric rail_fast ship" speed="13.89" length="11.33" shape="105.81,230.53 104.58,227.62 103.98,225.20 103.41,222.76 102.29,219.79"/>
    </edge>
    <edge id=":249797239_2" function="internal">
        <lane id=":249797239_2_0" index="0" disallow="tram rail_urban rail rail_electric rail_fast ship" speed="7.17" length="2.40" shape="99.40,221.15 100.85,223.05"/>
    </edge>
    <edge id=":249797239_3" function="internal">
        <lane id=":249797239_3_0" index="0" disallow="tram rail_urban rail rail_electric rail_fast ship" speed="7.17" length="9.33" shape="100.85,223.05 100.96,223.19 103.19,224.05 106.07,223.72 109.62,222.20"/>
    </edge>
    <edge id=":26782248_0" function="internal">
        <lane id=":26782248_0_0" index="0" disallow="tram rail_urban rail rail_electric rail_fast ship" speed="13.89" length="10.09" shape="27.97,83.11 25.69,81.52 24.17,80.37 22.79,79.07 20.91,77.03"/>
        <lane id=":26782248_0_1" index="1" disallow="tram rail_urban rail rail_electric rail_fast ship" speed="13.89" length="10.09" shape="26.14,85.73 23.68,84.03 22.05,82.78 20.56,81.37 18.54,79.17"/>
        <lane id=":26782248_0_2" index="2" disallow="tram rail_urban rail rail_electric rail_fast ship" speed="13.89" length="10.09" shape="24.32,88.36 21.68,86.53 19.93,85.19 18.33,83.67 16.16,81.31"/>
    </edge>
    <edge id=":26782248_3" function="internal">
        <lane id=":26782248_3_0" index="0" disallow="tram rail_urban rail rail_electric rail_fast ship" speed="7.90" length="11.55" shape="16.48,89.71 18.53,86.38 19.56,83.52 19.56,81.11 18.54,79.17"/>
        <lane id=":26782248_3_1" index="1" disallow="tram rail_urban rail rail_electric rail_fast ship" speed="7.11" length="9.19" shape="16.48,89.71 17.67,87.51 18.01,85.38 17.50,83.31 16.16,81.31"/>
    </edge>
    <edge id=":26782339_0" function="internal">
        <lane id=":26782339_0_0" index="0" disallow="tram rail_urban rail rail_electric rail_fast ship" speed="13.89" length="13.28" shape="80.92,110.08 68.79,104.65"/>
        <lane id=":26782339_0_1" index="1" disallow="tram rail_urban rail rail_electric rail_fast ship" speed="13.89" length="13.28" shape="79.60,113.00 67.48,107.57"/>
        <lane id=":26782339_0_2" index="2" disallow="tram rail_urban rail rail_electric rail_fast ship" speed="13.89" length="13.28" shape="78.27,115.91 66.17,110.49"/>
    </edge>
    <edge id=":26782339_3" function="internal">
        <lane id=":26782339_3_0" index="0" disallow="tram rail_urban rail rail_electric rail_fast ship" speed="10.98" length="12.83" shape="78.27,115.91 74.68,114.56 71.41,113.93 68.48,114.02 65.86,114.82"/>
        <lane id=":26782339_3_1" index="1" disallow="tram rail_urban rail rail_electric rail_fast ship" speed="10.73" length="12.24" shape="78.27,115.91 76.15,115.41 73.49,115.60 70.28,116.48 66.53,118.04"/>
    </edge>
    <edge id=":4600790065_0" function="internal">
        <lane id=":4600790065_0_0" index="0" disallow="tram rail_urban rail rail_electric rail_fast ship" speed="7.26" length="11.39" shape="19.59,201.11 18.74,203.76 19.11,206.18 20.71,208.38 23.52,210.36"/>
    </edge>
    <edge id=":4600790084_0" function="internal">
        <lane id=":4600790084_0_0" index="0" disallow="tram rail_urban rail rail_electric rail_fast ship" speed="6.45" length="7.91" shape="200.54,175.89 198.77,177.15 196.99,177.63 195.21,177.33 193.41,176.26"/>
        <lane id=":4600790084_0_1" index="1" disallow="tram rail_urban rail rail_electric rail_fast ship" speed="7.93" length="12.45" shape="202.72,178.23 199.93,180.21 197.13,180.98 194.33,180.52 191.51,178.84"/>
    </edge>
    <edge id=":4600790084_2" function="internal">
        <lane id=":4600790084_2_0" index="0" disallow="tram rail_urban rail rail_electric rail_fast ship" speed="13.89" length="12.75" shape="202.42,185.48 199.63,182.87 197.94,180.84 196.24,178.83 193.41,176.26"/>
        <lane id=":4600790084_2_1" index="1" disallow="tram rail_urban rail rail_electric rail_fast ship" speed="13.89" length="12.75" shape="200.37,187.93 197.62,185.36 195.96,183.36 194.29,181.38 191.51,178.84"/>
        <lane id=":4600790084_2_2" index="2" disallow="tram rail_urban rail rail_electric rail_fast ship" speed="13.89" length="12.75" shape="200.37,187.93 197.34,185.77 195.01,184.65 192.67,183.54 189.60,181.42"/>
    </edge>
    <edge id=":4600790493_0" function="internal">
        <lane id=":4600790493_0_0" index="0" disallow="tram rail_urban rail rail_electric rail_fast ship" speed="6.80" length="8.49" shape="229.63,176.38 228.54,174.41 228.24,172.46 228.75,170.55 230.04,168.66"/>
    </edge>
    <edge id=":4600790493_1" function="internal">
        <lane id=":4600790493_1_0" index="0" disallow="tram rail_urban rail rail_electric rail_fast ship" speed="13.89" length="10.35" shape="226.59,177.65 225.02,174.86 224.44,172.64 223.78,170.48 221.95,167.91"/>
        <lane id=":4600790493_1_1" index="1" disallow="tram rail_urban rail rail_electric rail_fast ship" speed="13.89" length="10.35" shape="223.54,178.92 222.17,176.41 221.73,174.38 221.22,172.42 219.62,170.10"/>
    </edge>
    <edge id=":4600790493_3" function="internal">
        <lane id=":4600790493_3_0" index="0" disallow="tram rail_urban rail rail_electric rail_fast ship" speed="12.64" length="14.83" shape="216.97,176.57 220.04,176.04 223.24,174.54 226.58,172.08 230.04,168.66"/>
        <lane id=":4600790493_3_1" index="1" disallow="tram rail_urban rail rail_electric rail_fast ship" speed="13.89" length="14.83" shape="216.42,173.51 220.24,171.87 222.86,170.65 225.17,169.01 228.06,166.09"/>
    </edge>
    <edge id=":4600790493_5" function="internal">
        <lane id=":4600790493_5_0" index="0" disallow="tram rail_urban rail rail_electric rail_fast ship" speed="4.71" length="2.88" shape="216.42,173.51 218.30,172.53 218.90,172.08"/>
    </edge>
    <edge id=":4600790493_6" function="internal">
        <lane id=":4600790493_6_0" index="0" disallow="tram rail_urban rail rail_electric rail_fast ship" speed="4.71" length="2.42" shape="218.90,172.08 219.47,171.64 219.91,170.83 219.62,170.10"/>
    </edge>
    <edge id=":4745151601_0" function="internal">
        <lane id=":4745151601_0_0" index="0" disallow="tram rail_urban rail rail_electric rail_fast ship" speed="6.50" length="9.07" shape="130.05,62.12 127.63,61.61 125.95,60.44 125.03,58.61 124.86,56.11"/>
    </edge>
    <edge id=":4745151601_1" function="internal">
        <lane id=":4745151601_1_0" index="0" disallow="tram rail_urban rail rail_electric rail_fast ship" speed="13.89" length="11.33" shape="130.05,62.12 126.86,62.05 124.35,62.08 121.88,61.88 118.82,61.12"/>
    </edge>
    <edge id=":4745151601_2" function="internal">
        <lane id=":4745151601_2_0" index="0" disallow="tram rail_urban rail rail_electric rail_fast ship" speed="6.64" length="9.18" shape="123.62,70.50 124.21,68.10 125.45,66.43 127.33,65.50 129.85,65.31"/>
    </edge>
    <edge id=":4745151601_3" function="internal">
        <lane id=":4745151601_3_0" index="0" disallow="tram rail_urban rail rail_electric rail_fast ship" speed="13.89" length="14.44" shape="123.62,70.50 124.86,56.11"/>
    </edge>
    <edge id=":4745151601_4" function="internal">
        <lane id=":4745151601_4_0" index="0" disallow="tram rail_urban rail rail_electric rail_fast ship" speed="7.88" length="11.50" shape="123.62,70.50 123.60,67.07 122.80,64.36 121.20,62.38 118.82,61.12"/>
    </edge>
    <edge id=":4745151601_5" function="internal">
        <lane id=":4745151601_5_0" index="0" disallow="tram rail_urban rail rail_electric rail_fast ship" speed="13.89" length="11.44" shape="118.46,64.30 129.85,65.31"/>
    </edge>
    <edge id=":4745151601_6" function="internal">
        <lane id=":4745151601_6_0" index="0" disallow="tram rail_urban rail rail_electric rail_fast ship" speed="7.25" length="2.15" shape="118.46,64.30 120.60,64.08"/>
    </edge>
    <edge id=":4745151601_7" function="internal">
        <lane id=":4745151601_7_0" index="0" disallow="tram rail_urban rail rail_electric rail_fast ship" speed="7.25" length="9.64" shape="120.60,64.08 121.02,64.04 122.94,62.58 124.22,59.94 124.86,56.11"/>
    </edge>
    <edge id=":5686639655_0" function="internal">
        <lane id=":5686639655_0_0" index="0" disallow="tram rail_urban rail rail_electric rail_fast ship" speed="13.89" length="8.05" shape="305.86,58.26 304.33,59.98 302.98,60.89 301.60,61.77 299.95,63.41"/>
        <lane id=":5686639655_0_1" index="1" disallow="tram rail_urban rail rail_electric rail_fast ship" speed="13.89" length="8.05" shape="308.47,60.11 306.90,61.88 305.53,62.82 304.12,63.73 302.45,65.42"/>
        <lane id=":5686639655_0_2" index="2" disallow="tram rail_urban rail rail_electric rail_fast ship" speed="13.89" length="8.05" shape="308.47,60.11 307.28,62.20 306.78,63.82 306.24,65.41 304.94,67.42"/>
    </edge>
    <edge id=":5809892935_0" function="internal">
        <lane id=":5809892935_0_0" index="0" disallow="tram rail_urban rail rail_electric rail_fast ship" speed="13.89" length="9.68" shape="234.83,212.56 227.44,206.17"/>
        <lane id=":5809892935_0_1" index="1" disallow="tram rail_urban rail rail_electric rail_fast ship" speed="13.89" length="9.68" shape="232.66,214.91 225.41,208.64"/>
    </edge>
    <edge id=":5809892935_2" function="internal">
        <lane id=":5809892935_2_0" index="0" disallow="tram rail_urban rail rail_electric rail_fast ship" speed="6.92" length="8.29" shape="232.66,214.91 231.00,213.81 229.17,213.43 227.17,213.76 225.01,214.82"/>
    </edge>
    <edge id=":6048295590_0" function="internal">
        <lane id=":6048295590_0_0" index="0" disallow="tram rail_urban rail rail_electric rail_fast ship" speed="6.51" length="8.98" shape="110.58,124.28 108.67,122.73 107.72,120.94 107.71,118.90 108.65,116.63"/>
    </edge>
    <edge id=":6048295590_1" function="internal">
        <lane id=":6048295590_1_0" index="0" disallow="tram rail_urban rail rail_electric rail_fast ship" speed="13.89" length="10.59" shape="110.58,124.28 107.79,122.61 105.85,121.51 103.86,120.52 100.91,119.16"/>
        <lane id=":6048295590_1_1" index="1" disallow="tram rail_urban rail rail_electric rail_fast ship" speed="13.89" length="10.59" shape="108.93,127.02 106.24,125.41 104.36,124.35 102.44,123.39 99.58,122.08"/>
        <lane id=":6048295590_1_2" index="2" disallow="tram rail_urban rail rail_electric rail_fast ship" speed="13.89" length="10.59" shape="107.28,129.77 104.68,128.21 102.87,127.18 101.01,126.26 98.26,124.99"/>
    </edge>
    <edge id=":6290657516_0" function="internal">
        <lane id=":6290657516_0_0" index="0" disallow="tram rail_urban rail rail_electric rail_fast ship" speed="3.65" length="4.67" shape="95.89,47.51 94.45,47.57 93.69,48.05 93.62,48.94 94.23,50.25"/>
    </edge>
    <edge id=":6322460443_0" function="internal">
        <lane id=":6322460443_0_0" index="0" disallow="tram rail_urban rail rail_electric rail_fast ship" speed="3.65" length="4.67" shape="416.27,332.08 416.45,330.64 416.11,329.82 415.24,329.60 413.85,329.98"/>
    </edge>
    <edge id=":7698913261_0" function="internal">
        <lane id=":7698913261_0_0" index="0" disallow="tram rail_urban rail rail_electric rail_fast ship" speed="13.89" length="8.21" shape="354.37,183.07 355.48,180.94 356.58,179.65 357.68,178.36 358.80,176.23"/>
        <lane id=":7698913261_0_1" index="1" disallow="tram rail_urban rail rail_electric rail_fast ship" speed="13.89" length="8.21" shape="354.37,183.07 355.01,180.75 355.09,179.06 355.17,177.36 355.82,175.04"/>
    </edge>
    <edge id=":7705372943_0" function="internal">