<?xml version="1.0" encoding="UTF-8"?>

<!-- generated on 2023-07-19 10:42:35 by Eclipse SUMO netconvert Version 1.17.0
<configuration xmlns:xsi="http://www.w3.org/2001/XMLSchema-instance" xsi:noNamespaceSchemaLocation="http://sumo.dlr.de/xsd/netconvertConfiguration.xsd">

    <input>
        <sumo-net-file value="osm.net.xml.gz"/>
    </input>

    <output>
        <output-file value="osm.net.xml"/>
        <output.street-names value="true"/>
    </output>

    <processing>
        <geometry.min-radius.fix.railways value="false"/>
        <geometry.max-grade.fix value="false"/>
        <offset.disable-normalization value="true"/>
        <lefthand value="0"/>
    </processing>

    <junctions>
        <no-turnarounds value="true"/>
        <junctions.corner-detail value="5"/>
        <junctions.limit-turn-speed value="5.50"/>
        <rectangular-lane-cut value="0"/>
    </junctions>

    <pedestrian>
        <walkingareas value="0"/>
    </pedestrian>

</configuration>
-->

<net version="1.16" junctionCornerDetail="5" limitTurnSpeed="5.50" xmlns:xsi="http://www.w3.org/2001/XMLSchema-instance" xsi:noNamespaceSchemaLocation="http://sumo.dlr.de/xsd/net_file.xsd">

    <location netOffset="-383517.14,-147120.79" convBoundary="0.00,0.00,634.67,574.88" origBoundary="103.952976,1.330822,103.958678,1.336025" projParameter="+proj=utm +zone=48 +ellps=WGS84 +datum=WGS84 +units=m +no_defs"/>

    <type id="highway.bridleway" priority="1" numLanes="1" speed="2.78" allow="pedestrian" oneway="1" width="2.00"/>
    <type id="highway.bus_guideway" priority="1" numLanes="1" speed="27.78" allow="bus" oneway="1"/>
    <type id="highway.cycleway" priority="1" numLanes="1" speed="5.56" allow="bicycle" oneway="0" width="1.00"/>
    <type id="highway.footway" priority="1" numLanes="1" speed="2.78" allow="pedestrian" oneway="1" width="2.00"/>
    <type id="highway.ford" priority="1" numLanes="1" speed="2.78" allow="army" oneway="0"/>
    <type id="highway.living_street" priority="2" numLanes="1" speed="2.78" disallow="tram rail_urban rail rail_electric rail_fast ship" oneway="0"/>
    <type id="highway.motorway" priority="14" numLanes="2" speed="39.44" allow="private emergency authority army vip passenger hov taxi bus coach delivery truck trailer motorcycle evehicle custom1 custom2" oneway="1"/>
    <type id="highway.motorway_link" priority="9" numLanes="1" speed="22.22" allow="private emergency authority army vip passenger hov taxi bus coach delivery truck trailer motorcycle evehicle custom1 custom2" oneway="1"/>
    <type id="highway.path" priority="1" numLanes="1" speed="5.56" allow="pedestrian bicycle" oneway="0" width="2.00"/>
    <type id="highway.pedestrian" priority="1" numLanes="1" speed="2.78" allow="pedestrian" oneway="1" width="2.00"/>
    <type id="highway.primary" priority="12" numLanes="2" speed="27.78" disallow="tram rail_urban rail rail_electric rail_fast ship" oneway="0"/>
    <type id="highway.primary_link" priority="7" numLanes="1" speed="22.22" disallow="tram rail_urban rail rail_electric rail_fast ship" oneway="0"/>
    <type id="highway.raceway" priority="15" numLanes="2" speed="83.33" allow="vip" oneway="0"/>
    <type id="highway.residential" priority="3" numLanes="1" speed="13.89" disallow="tram rail_urban rail rail_electric rail_fast ship" oneway="0"/>
    <type id="highway.secondary" priority="11" numLanes="1" speed="27.78" disallow="tram rail_urban rail rail_electric rail_fast ship" oneway="0"/>
    <type id="highway.secondary_link" priority="6" numLanes="1" speed="22.22" disallow="tram rail_urban rail rail_electric rail_fast ship" oneway="0"/>
    <type id="highway.service" priority="1" numLanes="1" speed="5.56" allow="pedestrian delivery bicycle" oneway="0"/>
    <type id="highway.stairs" priority="1" numLanes="1" speed="1.39" allow="pedestrian" oneway="1" width="2.00"/>
    <type id="highway.step" priority="1" numLanes="1" speed="1.39" allow="pedestrian" oneway="1" width="2.00"/>
    <type id="highway.steps" priority="1" numLanes="1" speed="1.39" allow="pedestrian" oneway="1" width="2.00"/>
    <type id="highway.tertiary" priority="10" numLanes="1" speed="22.22" disallow="tram rail_urban rail rail_electric rail_fast ship" oneway="0"/>
    <type id="highway.tertiary_link" priority="5" numLanes="1" speed="22.22" disallow="tram rail_urban rail rail_electric rail_fast ship" oneway="0"/>
    <type id="highway.track" priority="1" numLanes="1" speed="5.56" allow="pedestrian motorcycle moped bicycle" oneway="0"/>
    <type id="highway.trunk" priority="13" numLanes="2" speed="27.78" disallow="pedestrian bicycle tram rail_urban rail rail_electric rail_fast ship" oneway="0"/>
    <type id="highway.trunk_link" priority="8" numLanes="1" speed="22.22" disallow="pedestrian bicycle tram rail_urban rail rail_electric rail_fast ship" oneway="0"/>
    <type id="highway.unclassified" priority="4" numLanes="1" speed="13.89" disallow="tram rail_urban rail rail_electric rail_fast ship" oneway="0"/>
    <type id="highway.unsurfaced" priority="1" numLanes="1" speed="8.33" disallow="tram rail_urban rail rail_electric rail_fast ship" oneway="0"/>
    <type id="railway.highspeed" priority="21" numLanes="1" speed="69.44" allow="rail_fast" oneway="1"/>
    <type id="railway.light_rail" priority="19" numLanes="1" speed="27.78" allow="rail_urban" oneway="1"/>
    <type id="railway.preserved" priority="16" numLanes="1" speed="27.78" allow="rail" oneway="1"/>
    <type id="railway.rail" priority="20" numLanes="1" speed="44.44" allow="rail" oneway="1"/>
    <type id="railway.subway" priority="18" numLanes="1" speed="27.78" allow="rail_urban" oneway="1"/>
    <type id="railway.tram" priority="17" numLanes="1" speed="13.89" allow="tram" oneway="1"/>

    <edge id=":2327243414_0" function="internal">
        <lane id=":2327243414_0_0" index="0" allow="bus bicycle" speed="5.75" length="12.94" shape="163.51,153.99 159.71,151.43 157.86,151.10 157.94,152.98 159.97,157.09"/>
    </edge>
    <edge id=":2327243414_1" function="internal">
        <lane id=":2327243414_1_0" index="0" allow="bus bicycle" speed="16.67" length="15.88" shape="163.51,153.99 150.92,144.32"/>
    </edge>
    <edge id=":2327243414_2" function="internal">
        <lane id=":2327243414_2_0" index="0" allow="bus bicycle" speed="3.65" length="1.44" shape="163.51,153.99 163.05,152.63"/>
    </edge>
    <edge id=":2327243414_10" function="internal">
        <lane id=":2327243414_10_0" index="0" allow="bus bicycle" speed="3.65" length="3.23" shape="163.05,152.63 163.22,151.75 164.02,151.36 165.46,151.46"/>
    </edge>
    <edge id=":2327243414_3" function="internal">
        <lane id=":2327243414_3_0" index="0" disallow="tram rail_urban rail rail_electric rail_fast ship" speed="16.67" length="15.79" shape="163.21,129.57 166.43,132.83 168.17,135.53 169.94,138.18 173.26,141.31"/>
        <lane id=":2327243414_3_1" index="1" disallow="tram rail_urban rail rail_electric rail_fast ship" speed="16.67" length="15.79" shape="161.16,132.03 164.40,135.31 166.17,138.02 167.96,140.69 171.31,143.84"/>
        <lane id=":2327243414_3_2" index="2" disallow="tram rail_urban rail rail_electric rail_fast ship" speed="16.67" length="15.79" shape="159.11,134.48 162.38,137.79 164.17,140.52 165.98,143.21 169.36,146.38"/>
        <lane id=":2327243414_3_3" index="3" disallow="tram rail_urban rail rail_electric rail_fast ship" speed="16.67" length="15.79" shape="157.07,136.94 160.36,140.27 162.17,143.02 164.00,145.72 167.41,148.92"/>
        <lane id=":2327243414_3_4" index="4" disallow="tram rail_urban rail rail_electric rail_fast ship" speed="16.67" length="15.79" shape="155.02,139.40 158.34,142.75 160.17,145.52 162.02,148.24 165.46,151.46"/>
    </edge>
    <edge id=":2327243414_8" function="internal">
        <lane id=":2327243414_8_0" index="0" disallow="tram rail_urban rail rail_electric rail_fast ship" speed="15.28" length="3.49" shape="152.97,141.86 155.24,144.51"/>
    </edge>
    <edge id=":2327243414_9" function="internal">
        <lane id=":2327243414_9_0" index="0" allow="bus bicycle" speed="3.65" length="1.44" shape="152.97,141.86 153.38,143.24"/>
    </edge>
    <edge id=":2327243414_11" function="internal">
        <lane id=":2327243414_11_0" index="0" disallow="tram rail_urban rail rail_electric rail_fast ship" speed="15.28" length="13.60" shape="155.24,144.51 156.43,145.89 157.95,149.86 158.73,153.64 159.97,157.09"/>
    </edge>
    <edge id=":2327243414_12" function="internal">
        <lane id=":2327243414_12_0" index="0" allow="bus bicycle" speed="3.65" length="3.23" shape="153.38,143.24 153.17,144.11 152.35,144.47 150.92,144.32"/>
    </edge>
    <edge id=":2327243415_0" function="internal">
        <lane id=":2327243415_0_0" index="0" disallow="tram rail_urban rail rail_electric rail_fast ship" speed="16.67" length="14.19" shape="186.11,153.73 175.51,144.68"/>
        <lane id=":2327243415_0_1" index="1" disallow="tram rail_urban rail rail_electric rail_fast ship" speed="16.67" length="14.19" shape="188.18,151.29 177.38,142.09"/>
        <lane id=":2327243415_0_2" index="2" disallow="tram rail_urban rail rail_electric rail_fast ship" speed="16.67" length="14.19" shape="190.26,148.85 179.26,139.49"/>
    </edge>
    <edge id=":2327243415_3" function="internal">
        <lane id=":2327243415_3_0" index="0" allow="bus bicycle" speed="3.65" length="1.44" shape="190.26,148.85 189.86,147.46"/>
    </edge>
    <edge id=":2327243415_9" function="internal">
        <lane id=":2327243415_9_0" index="0" allow="bus bicycle" speed="3.65" length="3.23" shape="189.86,147.46 190.08,146.60 190.90,146.25 192.33,146.41"/>
    </edge>
    <edge id=":2327243415_4" function="internal">
        <lane id=":2327243415_4_0" index="0" allow="bus bicycle" speed="5.64" length="12.12" shape="194.60,142.09 190.44,141.29 188.67,141.74 189.30,143.45 192.33,146.41"/>
    </edge>
    <edge id=":2327243415_5" function="internal">
        <lane id=":2327243415_5_0" index="0" disallow="tram rail_urban rail rail_electric rail_fast ship" speed="15.28" length="16.85" shape="194.60,142.09 190.85,142.26 186.80,143.50 182.34,144.03 177.38,142.09"/>
        <lane id=":2327243415_5_1" index="1" disallow="tram rail_urban rail rail_electric rail_fast ship" speed="15.28" length="16.85" shape="194.60,142.09 191.05,141.78 187.48,142.02 183.63,141.64 179.26,139.49"/>
    </edge>
    <edge id=":2327243415_7" function="internal">
        <lane id=":2327243415_7_0" index="0" allow="bus bicycle" speed="16.67" length="14.69" shape="181.13,136.90 192.33,146.41"/>
    </edge>
    <edge id=":2327243415_8" function="internal">
        <lane id=":2327243415_8_0" index="0" allow="bus bicycle" speed="3.65" length="1.44" shape="181.13,136.90 181.64,138.25"/>
    </edge>
    <edge id=":2327243415_10" function="internal">
        <lane id=":2327243415_10_0" index="0" allow="bus bicycle" speed="3.65" length="3.23" shape="181.64,138.25 181.49,139.14 180.70,139.55 179.26,139.49"/>
    </edge>
    <edge id=":2327243434_0" function="internal">
        <lane id=":2327243434_0_0" index="0" disallow="tram rail_urban rail rail_electric rail_fast ship" speed="19.44" length="13.87" shape="172.50,199.79 169.43,202.36 167.21,204.00 165.11,205.75 162.38,208.65"/>
        <lane id=":2327243434_0_1" index="1" disallow="tram rail_urban rail rail_electric rail_fast ship" speed="19.44" length="13.87" shape="170.34,197.42 167.19,200.08 164.92,201.77 162.75,203.57 159.95,206.56"/>
        <lane id=":2327243434_0_2" index="2" disallow="tram rail_urban rail rail_electric rail_fast ship" speed="19.44" length="13.87" shape="168.18,195.06 164.95,197.79 162.62,199.54 160.40,201.40 157.52,204.48"/>
    </edge>
    <edge id=":2327243434_3" function="internal">
        <lane id=":2327243434_3_0" index="0" allow="bus bicycle" speed="3.65" length="1.44" shape="168.18,195.06 166.76,195.27"/>
    </edge>
    <edge id=":2327243434_9" function="internal">
        <lane id=":2327243434_9_0" index="0" allow="bus bicycle" speed="3.65" length="3.23" shape="166.76,195.27 165.92,194.95 165.68,194.09 166.03,192.69"/>
    </edge>
    <edge id=":2327243434_4" function="internal">
        <lane id=":2327243434_4_0" index="0" allow="bus bicycle" speed="5.55" length="11.32" shape="161.79,189.72 160.88,193.54 161.28,195.31 162.99,195.03 166.03,192.69"/>
    </edge>
    <edge id=":2327243434_5" function="internal">
        <lane id=":2327243434_5_0" index="0" disallow="tram rail_urban rail rail_electric rail_fast ship" speed="16.66" length="16.58" shape="161.79,189.72 161.63,193.45 162.36,197.51 162.35,201.89 159.95,206.56"/>
        <lane id=":2327243434_5_1" index="1" disallow="tram rail_urban rail rail_electric rail_fast ship" speed="16.66" length="16.58" shape="161.79,189.72 161.18,193.21 160.95,196.69 160.08,200.38 157.52,204.48"/>
    </edge>
    <edge id=":2327243434_7" function="internal">
        <lane id=":2327243434_7_0" index="0" allow="bus bicycle" speed="19.44" length="14.64" shape="155.09,202.40 157.65,199.75 160.39,197.38 163.22,195.10 166.03,192.69"/>
    </edge>
    <edge id=":2327243434_8" function="internal">
        <lane id=":2327243434_8_0" index="0" allow="bus bicycle" speed="3.65" length="1.44" shape="155.09,202.40 156.48,202.01"/>
    </edge>
    <edge id=":2327243434_10" function="internal">
        <lane id=":2327243434_10_0" index="0" allow="bus bicycle" speed="3.65" length="3.23" shape="156.48,202.01 157.35,202.22 157.69,203.05 157.52,204.48"/>
    </edge>
    <edge id=":2327243441_0" function="internal">
        <lane id=":2327243441_0_0" index="0" disallow="tram rail_urban rail rail_electric rail_fast ship" speed="16.67" length="19.74" shape="264.14,214.95 247.91,203.26"/>
        <lane id=":2327243441_0_1" index="1" disallow="tram rail_urban rail rail_electric rail_fast ship" speed="16.67" length="19.74" shape="266.07,212.40 249.96,200.81"/>
        <lane id=":2327243441_0_2" index="2" disallow="tram rail_urban rail rail_electric rail_fast ship" speed="16.67" length="19.74" shape="268.00,209.85 252.02,198.36"/>
        <lane id=":2327243441_0_3" index="3" disallow="tram rail_urban rail rail_electric rail_fast ship" speed="16.67" length="19.74" shape="269.94,207.31 254.07,195.90"/>
        <lane id=":2327243441_0_4" index="4" disallow="tram rail_urban rail rail_electric rail_fast ship" speed="16.67" length="19.74" shape="269.94,207.31 265.55,203.53 262.92,200.52 260.35,197.43 256.13,193.45"/>
    </edge>
    <edge id=":2327243441_5" function="internal">
        <lane id=":2327243441_5_0" index="0" disallow="tram rail_urban rail rail_electric rail_fast ship" speed="15.28" length="19.98" shape="269.94,207.31 265.36,203.64 262.61,200.55 260.91,196.79 259.49,191.11"/>
        <lane id=":2327243441_5_1" index="1" disallow="tram rail_urban rail rail_electric rail_fast ship" speed="15.28" length="19.70" shape="269.94,207.31 265.88,203.47 264.15,199.92 263.45,195.71 262.50,189.89"/>
    </edge>
    <edge id=":2327243444_0" function="internal">
        <lane id=":2327243444_0_0" index="0" disallow="tram rail_urban rail rail_electric rail_fast ship" speed="16.67" length="15.86" shape="227.93,197.34 240.73,206.72"/>
        <lane id=":2327243444_0_1" index="1" disallow="tram rail_urban rail rail_electric rail_fast ship" speed="16.67" length="15.86" shape="226.04,199.92 238.84,209.30"/>
        <lane id=":2327243444_0_2" index="2" disallow="tram rail_urban rail rail_electric rail_fast ship" speed="16.67" length="15.86" shape="224.15,202.50 236.95,211.88"/>
    </edge>
    <edge id=":2327243444_3" function="internal">
        <lane id=":2327243444_3_0" index="0" disallow="tram rail_urban rail rail_electric rail_fast ship" speed="15.28" length="16.65" shape="222.01,207.48 225.79,207.20 229.74,206.64 234.03,206.95 238.84,209.30"/>
        <lane id=":2327243444_3_1" index="1" disallow="tram rail_urban rail rail_electric rail_fast ship" speed="15.28" length="16.65" shape="222.01,207.48 225.57,207.66 229.00,208.08 232.67,209.30 236.95,211.88"/>
    </edge>
    <edge id=":2327243472_0" function="internal">
        <lane id=":2327243472_0_0" index="0" disallow="tram rail_urban rail rail_electric rail_fast ship" speed="19.44" length="8.52" shape="141.42,234.55 142.79,232.36 143.09,230.45 143.43,228.57 144.88,226.46"/>
        <lane id=":2327243472_0_1" index="1" disallow="tram rail_urban rail rail_electric rail_fast ship" speed="19.44" length="8.52" shape="143.76,236.74 145.09,234.58 145.38,232.69 145.69,230.83 147.11,228.76"/>
        <lane id=":2327243472_0_2" index="2" disallow="tram rail_urban rail rail_electric rail_fast ship" speed="19.44" length="8.52" shape="146.10,238.92 147.40,236.80 147.66,234.93 147.95,233.10 149.33,231.06"/>
        <lane id=":2327243472_0_3" index="3" disallow="tram rail_urban rail rail_electric rail_fast ship" speed="19.44" length="8.52" shape="148.44,241.10 149.71,239.02 149.94,237.18 150.21,235.37 151.56,233.36"/>
        <lane id=":2327243472_0_4" index="4" disallow="tram rail_urban rail rail_electric rail_fast ship" speed="19.44" length="8.52" shape="148.44,241.10 153.79,235.66"/>
        <lane id=":2327243472_0_5" index="5" disallow="tram rail_urban rail rail_electric rail_fast ship" speed="19.44" length="8.52" shape="148.44,241.10 150.39,239.75 152.17,239.48 153.98,239.23 156.02,237.95"/>
    </edge>
    <edge id=":242650793_0" function="internal">
        <lane id=":242650793_0_0" index="0" disallow="tram rail_urban rail rail_electric rail_fast ship" speed="19.44" length="16.97" shape="254.62,147.18 268.82,137.49"/>
        <lane id=":242650793_0_1" index="1" disallow="tram rail_urban rail rail_electric rail_fast ship" speed="19.44" length="16.97" shape="256.42,149.82 270.44,140.25"/>
        <lane id=":242650793_0_2" index="2" disallow="tram rail_urban rail rail_electric rail_fast ship" speed="19.44" length="16.97" shape="258.23,152.46 272.07,143.01"/>
    </edge>
    <edge id=":242650793_3" function="internal">
        <lane id=":242650793_3_0" index="0" disallow="tram rail_urban rail rail_electric rail_fast ship" speed="16.66" length="17.08" shape="261.10,155.01 263.19,150.05 264.45,146.38 266.37,143.33 270.44,140.25"/>
        <lane id=":242650793_3_1" index="1" disallow="tram rail_urban rail rail_electric rail_fast ship" speed="16.66" length="17.08" shape="263.95,156.47 265.78,151.98 266.82,148.62 268.45,145.81 272.07,143.01"/>
    </edge>
    <edge id=":242652268_0" function="internal">
        <lane id=":242652268_0_0" index="0" disallow="tram rail_urban rail rail_electric rail_fast ship" speed="19.44" length="10.99" shape="238.95,144.23 236.54,145.93 235.04,147.31 233.67,148.83 231.61,150.98"/>
        <lane id=":242652268_0_1" index="1" disallow="tram rail_urban rail rail_electric rail_fast ship" speed="19.44" length="10.99" shape="237.22,141.54 234.64,143.35 233.04,144.80 231.56,146.41 229.37,148.70"/>
        <lane id=":242652268_0_2" index="2" disallow="tram rail_urban rail rail_electric rail_fast ship" speed="19.44" length="10.99" shape="235.48,138.85 232.74,140.77 231.03,142.30 229.46,144.00 227.12,146.42"/>
        <lane id=":242652268_0_3" index="3" disallow="tram rail_urban rail rail_electric rail_fast ship" speed="19.44" length="10.99" shape="233.74,136.17 230.84,138.19 229.03,139.80 227.35,141.58 224.88,144.13"/>
    </edge>
    <edge id=":242652268_4" function="internal">
        <lane id=":242652268_4_0" index="0" disallow="tram rail_urban rail rail_electric rail_fast ship" speed="16.66" length="16.32" shape="232.01,133.48 227.64,136.48 224.32,138.88 221.36,140.66 218.08,141.79"/>
    </edge>
    <edge id=":242932949_0" function="internal">
        <lane id=":242932949_0_0" index="0" disallow="tram rail_urban rail rail_electric rail_fast ship" speed="19.44" length="8.12" shape="173.03,199.19 174.97,197.76 176.59,197.19 178.23,196.63 180.21,195.24"/>
        <lane id=":242932949_0_1" index="1" disallow="tram rail_urban rail rail_electric rail_fast ship" speed="19.44" length="8.12" shape="175.25,201.49 177.18,200.07 178.79,199.51 180.41,198.97 182.38,197.60"/>
        <lane id=":242932949_0_2" index="2" disallow="tram rail_urban rail rail_electric rail_fast ship" speed="19.44" length="8.12" shape="177.48,203.78 179.39,202.39 180.99,201.84 182.60,201.30 184.54,199.95"/>
        <lane id=":242932949_0_3" index="3" disallow="tram rail_urban rail rail_electric rail_fast ship" speed="19.44" length="8.12" shape="179.71,206.08 181.60,204.70 183.18,204.17 184.79,203.64 186.71,202.30"/>
        <lane id=":242932949_0_4" index="4" disallow="tram rail_urban rail rail_electric rail_fast ship" speed="19.44" length="8.12" shape="181.93,208.38 183.81,207.02 185.38,206.49 186.97,205.98 188.88,204.66"/>
    </edge>
    <edge id=":242932949_5" function="internal">
        <lane id=":242932949_5_0" index="0" disallow="tram rail_urban rail rail_electric rail_fast ship" speed="10.46" length="7.46" shape="184.16,210.68 185.80,209.26 187.15,208.58 188.69,208.28 190.89,208.04"/>
    </edge>
    <edge id=":242933179_0" function="internal">
        <lane id=":242933179_0_0" index="0" allow="bus bicycle" speed="3.65" length="4.67" shape="67.38,328.64 65.99,329.03 65.12,328.82 64.77,327.99 64.94,326.56"/>
    </edge>
    <edge id=":3895267420_0" function="internal">
        <lane id=":3895267420_0_0" index="0" disallow="tram rail_urban rail rail_electric rail_fast ship" speed="16.67" length="8.35" shape="192.29,155.96 189.30,163.75"/>
        <lane id=":3895267420_0_1" index="1" disallow="tram rail_urban rail rail_electric rail_fast ship" speed="16.67" length="8.35" shape="190.33,158.49 187.36,166.29"/>
        <lane id=":3895267420_0_2" index="2" disallow="tram rail_urban rail rail_electric rail_fast ship" speed="16.67" length="8.35" shape="188.38,161.03 185.42,168.84"/>
        <lane id=":3895267420_0_3" index="3" disallow="tram rail_urban rail rail_electric rail_fast ship" speed="16.67" length="8.35" shape="186.43,163.56 183.48,171.38"/>
        <lane id=":3895267420_0_4" index="4" disallow="tram rail_urban rail rail_electric rail_fast ship" speed="16.67" length="8.35" shape="184.48,166.10 181.54,173.93"/>
    </edge>
    <edge id=":3895267420_5" function="internal">
        <lane id=":3895267420_5_0" index="0" allow="bus bicycle" speed="3.65" length="4.67" shape="184.48,166.10 184.94,167.46 184.77,168.34 183.96,168.73 182.53,168.63"/>
    </edge>
    <edge id=":4658025663_0" function="internal">
        <lane id=":4658025663_0_0" index="0" disallow="tram rail_urban rail rail_electric rail_fast ship" speed="19.44" length="8.20" shape="120.49,259.94 121.89,257.97 122.55,256.40 123.21,254.83 124.64,252.88"/>
        <lane id=":4658025663_0_1" index="1" disallow="tram rail_urban rail rail_electric rail_fast ship" speed="19.44" length="8.20" shape="122.89,262.06 124.29,260.09 124.94,258.53 125.60,256.97 127.01,255.02"/>
        <lane id=":4658025663_0_2" index="2" disallow="tram rail_urban rail rail_electric rail_fast ship" speed="19.44" length="8.20" shape="125.29,264.17 126.68,262.22 127.33,260.66 127.98,259.10 129.39,257.16"/>
        <lane id=":4658025663_0_3" index="3" disallow="tram rail_urban rail rail_electric rail_fast ship" speed="19.44" length="8.20" shape="125.29,264.17 127.05,262.55 128.52,261.73 129.99,260.91 131.77,259.30"/>
    </edge>
    <edge id=":4658576255_0" function="internal">
        <lane id=":4658576255_0_0" index="0" allow="bus bicycle" speed="3.65" length="4.67" shape="60.42,72.87 59.97,71.50 60.15,70.62 60.96,70.24 62.40,70.35"/>
    </edge>
    <edge id=":5145896134_0" function="internal">
        <lane id=":5145896134_0_0" index="0" disallow="tram rail_urban rail rail_electric rail_fast ship" speed="19.44" length="8.00" shape="301.60,106.79 299.62,107.86 298.46,108.94 297.32,110.07 295.40,111.27"/>
        <lane id=":5145896134_0_1" index="1" disallow="tram rail_urban rail rail_electric rail_fast ship" speed="19.44" length="8.00" shape="300.41,103.82 298.37,104.91 297.17,106.01 295.99,107.16 294.01,108.39"/>
        <lane id=":5145896134_0_2" index="2" disallow="tram rail_urban rail rail_electric rail_fast ship" speed="19.44" length="8.00" shape="299.23,100.85 297.12,101.96 295.88,103.08 294.66,104.25 292.62,105.50"/>
        <lane id=":5145896134_0_3" index="3" disallow="tram rail_urban rail rail_electric rail_fast ship" speed="19.44" length="8.00" shape="299.23,100.85 296.89,101.52 295.19,101.64 293.50,101.81 291.23,102.62"/>
    </edge>
    <edge id=":6004243202_0" function="internal">
        <lane id=":6004243202_0_0" index="0" allow="bus bicycle" speed="3.65" length="4.67" shape="-0.95,1.29 -1.44,-0.07 -1.29,-0.95 -0.49,-1.36 0.95,-1.29"/>
    </edge>
    <edge id=":6023884587_0" function="internal">
        <lane id=":6023884587_0_0" index="0" allow="bus bicycle" speed="16.67" length="7.49" shape="136.10,131.96 130.25,127.30"/>
    </edge>
    <edge id=":6023884587_1" function="internal">
        <lane id=":6023884587_1_0" index="0" disallow="tram rail_urban rail rail_electric rail_fast ship" speed="16.67" length="8.61" shape="139.92,114.55 142.26,115.70 144.21,115.82 146.13,115.98 148.40,117.22"/>
        <lane id=":6023884587_1_1" index="1" disallow="tram rail_urban rail rail_electric rail_fast ship" speed="16.67" length="8.61" shape="137.98,117.10 140.29,118.23 142.21,118.33 144.11,118.46 146.35,119.67"/>
        <lane id=":6023884587_1_2" index="2" disallow="tram rail_urban rail rail_electric rail_fast ship" speed="16.67" length="8.61" shape="136.05,119.65 138.32,120.75 140.22,120.83 142.10,120.95 144.30,122.13"/>
        <lane id=":6023884587_1_3" index="3" disallow="tram rail_urban rail rail_electric rail_fast ship" speed="16.67" length="8.61" shape="134.11,122.20 136.35,123.27 138.23,123.34 140.08,123.43 142.25,124.59"/>
        <lane id=":6023884587_1_4" index="4" disallow="tram rail_urban rail rail_electric rail_fast ship" speed="16.67" length="8.61" shape="132.18,124.75 134.38,125.80 136.24,125.84 138.06,125.92 140.20,127.05"/>
        <lane id=":6023884587_1_5" index="5" disallow="tram rail_urban rail rail_electric rail_fast ship" speed="16.67" length="8.61" shape="132.18,124.75 138.15,129.50"/>
    </edge>
    <edge id=":6183176076_0" function="internal">
        <lane id=":6183176076_0_0" index="0" allow="bus bicycle" speed="3.65" length="4.67" shape="75.94,297.17 74.55,297.55 73.68,297.33 73.34,296.50 73.52,295.07"/>
    </edge>
    <edge id=":6183178278_0" function="internal">
        <lane id=":6183178278_0_0" index="0" disallow="tram rail_urban rail rail_electric rail_fast ship" speed="19.44" length="5.66" shape="94.84,281.80 100.46,282.65"/>
        <lane id=":6183178278_0_1" index="1" disallow="tram rail_urban rail rail_electric rail_fast ship" speed="19.44" length="5.66" shape="97.27,283.88 102.86,284.77"/>
        <lane id=":6183178278_0_2" index="2" disallow="tram rail_urban rail rail_electric rail_fast ship" speed="19.44" length="5.66" shape="99.70,285.96 105.26,286.88"/>
    </edge>
    <edge id=":6183178278_3" function="internal">
        <lane id=":6183178278_3_0" index="0" allow="bus bicycle" speed="3.65" length="4.67" shape="99.70,285.96 101.09,285.57 101.96,285.79 102.31,286.61 102.13,288.05"/>
    </edge>
    <edge id=":6822772146_0" function="internal">
        <lane id=":6822772146_0_0" index="0" disallow="tram rail_urban rail rail_electric rail_fast ship" speed="19.44" length="7.51" shape="265.48,125.68 263.83,126.75 262.95,127.83 262.11,128.98 260.58,130.26"/>
        <lane id=":6822772146_0_1" index="1" disallow="tram rail_urban rail rail_electric rail_fast ship" speed="19.44" length="7.51" shape="264.09,122.79 262.34,123.92 261.38,125.04 260.47,126.23 258.84,127.57"/>
        <lane id=":6822772146_0_2" index="2" disallow="tram rail_urban rail rail_electric rail_fast ship" speed="19.44" length="7.51" shape="262.70,119.91 260.85,121.09 259.82,122.24 258.83,123.48 257.11,124.88"/>
        <lane id=":6822772146_0_3" index="3" disallow="tram rail_urban rail rail_electric rail_fast ship" speed="19.44" length="7.51" shape="261.31,117.03 259.35,118.26 258.25,119.45 257.19,120.72 255.37,122.19"/>
        <lane id=":6822772146_0_4" index="4" disallow="tram rail_urban rail rail_electric rail_fast ship" speed="19.44" length="7.51" shape="261.31,117.03 259.05,117.85 257.38,118.10 255.75,118.44 253.63,119.50"/>
    </edge>
    <edge id=":993699215_0" function="internal">
        <lane id=":993699215_0_0" index="0" disallow="tram rail_urban rail rail_electric rail_fast ship" speed="16.67" length="8.21" shape="310.13,247.79 308.06,246.55 306.45,246.02 304.84,245.49 302.77,244.25"/>
        <lane id=":993699215_0_1" index="1" disallow="tram rail_urban rail rail_electric rail_fast ship" speed="16.67" length="8.21" shape="312.06,245.23 309.99,243.99 308.38,243.47 306.77,242.94 304.70,241.69"/>
        <lane id=":993699215_0_2" index="2" disallow="tram rail_urban rail rail_electric rail_fast ship" speed="16.67" length="8.21" shape="313.98,242.68 311.92,241.44 310.30,240.91 308.70,240.39 306.63,239.14"/>
        <lane id=":993699215_0_3" index="3" disallow="tram rail_urban rail rail_electric rail_fast ship" speed="16.67" length="8.21" shape="313.98,242.68 312.22,241.04 311.27,239.64 310.32,238.23 308.56,236.59"/>
    </edge>
    <edge id=":cluster_242576180_242576232_242577672_242577687_0" function="internal">
        <lane id=":cluster_242576180_242576232_242577672_242577687_0_0" index="0" disallow="tram rail_urban rail rail_electric rail_fast ship" speed="15.35" length="45.56" shape="226.73,185.50 216.87,179.46 206.63,177.56 196.01,179.80 185.01,186.18"/>
    </edge>
    <edge id=":cluster_242576180_242576232_242577672_242577687_1" function="internal">