<?xml version="1.0" encoding="UTF-8"?>

<!-- generated on 2023-07-11 16:23:28 by Eclipse SUMO netconvert Version 1.17.0
<configuration xmlns:xsi="http://www.w3.org/2001/XMLSchema-instance" xsi:noNamespaceSchemaLocation="http://sumo.dlr.de/xsd/netconvertConfiguration.xsd">

    <input>
        <sumo-net-file value="osm.net.xml.gz"/>
    </input>

    <output>
        <output-file value="osm.net.xml"/>
        <output.street-names value="true"/>
    </output>

    <processing>
        <geometry.min-radius.fix.railways value="false"/>
        <geometry.max-grade.fix value="false"/>
        <offset.disable-normalization value="true"/>
        <lefthand value="1"/>
    </processing>

    <junctions>
        <no-turnarounds value="true"/>
        <junctions.corner-detail value="5"/>
        <junctions.limit-turn-speed value="5.50"/>
        <rectangular-lane-cut value="0"/>
    </junctions>

    <pedestrian>
        <walkingareas value="0"/>
    </pedestrian>

</configuration>
-->

<net version="1.16" junctionCornerDetail="5" lefthand="true" limitTurnSpeed="5.50" xmlns:xsi="http://www.w3.org/2001/XMLSchema-instance" xsi:noNamespaceSchemaLocation="http://sumo.dlr.de/xsd/net_file.xsd">

    <location netOffset="-353887.14,-148476.43" convBoundary="0.00,0.00,643.41,559.11" origBoundary="103.686678,1.342955,103.692460,1.348015" projParameter="+proj=utm +zone=48 +ellps=WGS84 +datum=WGS84 +units=m +no_defs"/>

    <type id="highway.bridleway" priority="1" numLanes="1" speed="2.78" allow="pedestrian" oneway="1" width="2.00"/>
    <type id="highway.bus_guideway" priority="1" numLanes="1" speed="27.78" allow="bus" oneway="1"/>
    <type id="highway.cycleway" priority="1" numLanes="1" speed="5.56" allow="bicycle" oneway="0" width="1.00"/>
    <type id="highway.footway" priority="1" numLanes="1" speed="2.78" allow="pedestrian" oneway="1" width="2.00"/>
    <type id="highway.ford" priority="1" numLanes="1" speed="2.78" allow="army" oneway="0"/>
    <type id="highway.living_street" priority="2" numLanes="1" speed="2.78" disallow="tram rail_urban rail rail_electric rail_fast ship" oneway="0"/>
    <type id="highway.motorway" priority="14" numLanes="2" speed="39.44" allow="private emergency authority army vip passenger hov taxi bus coach delivery truck trailer motorcycle evehicle custom1 custom2" oneway="1"/>
    <type id="highway.motorway_link" priority="9" numLanes="1" speed="22.22" allow="private emergency authority army vip passenger hov taxi bus coach delivery truck trailer motorcycle evehicle custom1 custom2" oneway="1"/>
    <type id="highway.path" priority="1" numLanes="1" speed="5.56" allow="pedestrian bicycle" oneway="0" width="2.00"/>
    <type id="highway.pedestrian" priority="1" numLanes="1" speed="2.78" allow="pedestrian" oneway="1" width="2.00"/>
    <type id="highway.primary" priority="12" numLanes="2" speed="27.78" disallow="tram rail_urban rail rail_electric rail_fast ship" oneway="0"/>
    <type id="highway.primary_link" priority="7" numLanes="1" speed="22.22" disallow="tram rail_urban rail rail_electric rail_fast ship" oneway="0"/>
    <type id="highway.raceway" priority="15" numLanes="2" speed="83.33" allow="vip" oneway="0"/>
    <type id="highway.residential" priority="3" numLanes="1" speed="13.89" disallow="tram rail_urban rail rail_electric rail_fast ship" oneway="0"/>
    <type id="highway.secondary" priority="11" numLanes="1" speed="27.78" disallow="tram rail_urban rail rail_electric rail_fast ship" oneway="0"/>
    <type id="highway.secondary_link" priority="6" numLanes="1" speed="22.22" disallow="tram rail_urban rail rail_electric rail_fast ship" oneway="0"/>
    <type id="highway.service" priority="1" numLanes="1" speed="5.56" allow="pedestrian delivery bicycle" oneway="0"/>
    <type id="highway.stairs" priority="1" numLanes="1" speed="1.39" allow="pedestrian" oneway="1" width="2.00"/>
    <type id="highway.step" priority="1" numLanes="1" speed="1.39" allow="pedestrian" oneway="1" width="2.00"/>
    <type id="highway.steps" priority="1" numLanes="1" speed="1.39" allow="pedestrian" oneway="1" width="2.00"/>
    <type id="highway.tertiary" priority="10" numLanes="1" speed="22.22" disallow="tram rail_urban rail rail_electric rail_fast ship" oneway="0"/>
    <type id="highway.tertiary_link" priority="5" numLanes="1" speed="22.22" disallow="tram rail_urban rail rail_electric rail_fast ship" oneway="0"/>
    <type id="highway.track" priority="1" numLanes="1" speed="5.56" allow="pedestrian motorcycle moped bicycle" oneway="0"/>
    <type id="highway.trunk" priority="13" numLanes="2" speed="27.78" disallow="pedestrian bicycle tram rail_urban rail rail_electric rail_fast ship" oneway="0"/>
    <type id="highway.trunk_link" priority="8" numLanes="1" speed="22.22" disallow="pedestrian bicycle tram rail_urban rail rail_electric rail_fast ship" oneway="0"/>
    <type id="highway.unclassified" priority="4" numLanes="1" speed="13.89" disallow="tram rail_urban rail rail_electric rail_fast ship" oneway="0"/>
    <type id="highway.unsurfaced" priority="1" numLanes="1" speed="8.33" disallow="tram rail_urban rail rail_electric rail_fast ship" oneway="0"/>
    <type id="railway.highspeed" priority="21" numLanes="1" speed="69.44" allow="rail_fast" oneway="1"/>
    <type id="railway.light_rail" priority="19" numLanes="1" speed="27.78" allow="rail_urban" oneway="1"/>
    <type id="railway.preserved" priority="16" numLanes="1" speed="27.78" allow="rail" oneway="1"/>
    <type id="railway.rail" priority="20" numLanes="1" speed="44.44" allow="rail" oneway="1"/>
    <type id="railway.subway" priority="18" numLanes="1" speed="27.78" allow="rail_urban" oneway="1"/>
    <type id="railway.tram" priority="17" numLanes="1" speed="13.89" allow="tram" oneway="1"/>

    <edge id=":246167512_0" function="internal">
        <lane id=":246167512_0_0" index="0" disallow="tram rail_urban rail rail_electric rail_fast ship" speed="11.26" length="9.45" shape="387.24,431.34 385.48,432.98 384.05,433.86 382.40,434.33 380.01,434.73"/>
        <lane id=":246167512_0_1" index="1" disallow="tram rail_urban rail rail_electric rail_fast ship" speed="12.24" length="9.45" shape="387.24,431.34 385.45,433.67 384.37,435.59 383.05,437.02 380.51,437.89"/>
        <lane id=":246167512_0_2" index="2" disallow="tram rail_urban rail rail_electric rail_fast ship" speed="12.59" length="9.45" shape="388.59,434.53 386.61,436.94 385.33,438.83 383.78,440.20 381.01,441.05"/>
    </edge>
    <edge id=":246168156_0" function="internal">
        <lane id=":246168156_0_0" index="0" allow="private emergency authority army vip passenger hov taxi bus coach delivery truck trailer motorcycle evehicle custom1 custom2" speed="15.28" length="22.15" shape="398.78,382.47 399.44,388.68 399.61,393.36 399.07,397.99 397.59,404.02"/>
        <lane id=":246168156_0_1" index="1" allow="private emergency authority army vip passenger hov taxi bus coach delivery truck trailer motorcycle evehicle custom1 custom2" speed="15.28" length="22.15" shape="402.02,382.64 402.65,388.96 402.77,393.88 402.18,398.75 400.67,404.89"/>
    </edge>
    <edge id=":246168156_2" function="internal">
        <lane id=":246168156_2_0" index="0" disallow="tram rail_urban rail rail_electric rail_fast ship" speed="16.67" length="22.01" shape="405.85,383.44 403.33,389.20 401.30,393.59 399.48,398.04 397.59,404.02"/>
        <lane id=":246168156_2_1" index="1" disallow="tram rail_urban rail rail_electric rail_fast ship" speed="16.67" length="22.01" shape="408.81,384.67 406.31,390.37 404.32,394.63 402.54,398.96 400.67,404.89"/>
    </edge>
    <edge id=":3600177761_0" function="internal">
        <lane id=":3600177761_0_0" index="0" disallow="tram rail_urban rail rail_electric rail_fast ship" speed="9.31" length="9.64" shape="338.56,427.05 338.12,429.64 337.24,431.86 335.91,433.73 334.13,435.24"/>
    </edge>
    <edge id=":3600177761_1" function="internal">
        <lane id=":3600177761_1_0" index="0" disallow="tram rail_urban rail rail_electric rail_fast ship" speed="7.20" length="7.46" shape="348.10,433.85 346.59,432.70 345.56,431.27 345.01,429.55 344.94,427.55"/>
    </edge>
    <edge id=":3600177761_2" function="internal">
        <lane id=":3600177761_2_0" index="0" disallow="tram rail_urban rail rail_electric rail_fast ship" speed="10.03" length="14.82" shape="348.10,433.85 344.84,432.56 341.43,432.36 337.86,433.26 334.13,435.24"/>
    </edge>
    <edge id=":3600177767_0" function="internal">
        <lane id=":3600177767_0_0" index="0" disallow="tram rail_urban rail rail_electric rail_fast ship" speed="13.89" length="8.81" shape="356.73,436.00 354.13,435.66 352.31,435.50 350.58,435.08 348.27,433.95"/>
    </edge>
    <edge id=":3600177767_1" function="internal">
        <lane id=":3600177767_1_0" index="0" disallow="tram rail_urban rail rail_electric rail_fast ship" speed="8.71" length="10.27" shape="352.79,442.62 352.52,439.81 351.67,437.42 350.26,435.47 348.27,433.95"/>
    </edge>
    <edge id=":3600177768_0" function="internal">
        <lane id=":3600177768_0_0" index="0" disallow="tram rail_urban rail rail_electric rail_fast ship" speed="16.67" length="9.79" shape="369.31,439.67 366.65,439.63 364.92,438.77 363.19,437.61 360.54,436.69"/>
        <lane id=":3600177768_0_1" index="1" disallow="tram rail_urban rail rail_electric rail_fast ship" speed="16.67" length="9.79" shape="369.81,442.83 366.96,442.83 365.07,442.00 363.20,440.85 360.35,439.91"/>
    </edge>
    <edge id=":3600177773_0" function="internal">
        <lane id=":3600177773_0_0" index="0" disallow="tram rail_urban rail rail_electric rail_fast ship" speed="11.11" length="8.05" shape="332.01,446.70 332.63,448.99 332.87,450.60 332.95,452.25 333.10,454.64"/>
    </edge>
    <edge id=":3600177773_1" function="internal">
        <lane id=":3600177773_1_0" index="0" disallow="tram rail_urban rail rail_electric rail_fast ship" speed="8.96" length="7.97" shape="332.01,446.70 332.79,448.53 333.91,450.10 335.38,451.41 337.18,452.44"/>
    </edge>
    <edge id=":3600177774_0" function="internal">
        <lane id=":3600177774_0_0" index="0" disallow="tram rail_urban rail rail_electric rail_fast ship" speed="9.19" length="6.81" shape="349.38,450.67 350.93,449.74 352.28,449.85 353.79,450.36 355.83,450.63"/>
        <lane id=":3600177774_0_1" index="1" disallow="tram rail_urban rail rail_electric rail_fast ship" speed="9.58" length="7.43" shape="349.38,450.67 350.97,449.14 352.20,448.17 353.62,447.63 355.75,447.43"/>
    </edge>
    <edge id=":3600177774_2" function="internal">
        <lane id=":3600177774_2_0" index="0" disallow="tram rail_urban rail rail_electric rail_fast ship" speed="9.16" length="7.96" shape="349.38,450.67 350.87,449.04 351.93,447.34 352.57,445.56 352.79,443.71"/>
    </edge>
    <edge id=":3600177775_0" function="internal">
        <lane id=":3600177775_0_0" index="0" disallow="tram rail_urban rail rail_electric rail_fast ship" speed="16.67" length="9.30" shape="372.12,450.79 375.03,451.35 376.96,452.41 378.88,453.26 381.74,453.24"/>
        <lane id=":3600177775_0_1" index="1" disallow="tram rail_urban rail rail_electric rail_fast ship" speed="16.67" length="9.30" shape="372.26,447.59 374.96,448.15 376.74,449.21 378.50,450.08 381.15,450.10"/>
        <lane id=":3600177775_0_2" index="2" disallow="tram rail_urban rail rail_electric rail_fast ship" speed="16.67" length="9.30" shape="372.26,447.59 374.74,447.64 376.44,447.60 378.12,447.39 380.56,446.95"/>
    </edge>
    <edge id=":3600177777_0" function="internal">
        <lane id=":3600177777_0_0" index="0" disallow="tram rail_urban rail rail_electric rail_fast ship" speed="11.11" length="11.15" shape="345.53,461.08 346.38,457.79 346.71,455.30 347.38,453.13 349.24,450.81"/>
    </edge>
    <edge id=":3600177777_1" function="internal">
        <lane id=":3600177777_1_0" index="0" disallow="tram rail_urban rail rail_electric rail_fast ship" speed="8.70" length="11.94" shape="338.25,452.93 341.13,453.81 343.93,453.75 346.63,452.75 349.24,450.81"/>
    </edge>
    <edge id=":3922463615_0" function="internal">
        <lane id=":3922463615_0_0" index="0" disallow="tram rail_urban rail rail_electric rail_fast ship" speed="11.11" length="9.90" shape="215.30,224.37 213.48,222.05 212.75,220.02 212.00,218.02 210.12,215.74"/>
        <lane id=":3922463615_0_1" index="1" disallow="tram rail_urban rail rail_electric rail_fast ship" speed="11.11" length="9.90" shape="215.30,224.37 207.99,218.13"/>
    </edge>
    <edge id=":3922463615_2" function="internal">
        <lane id=":3922463615_2_0" index="0" disallow="tram rail_urban rail rail_electric rail_fast ship" speed="11.11" length="8.82" shape="203.32,225.04 205.86,225.50 207.54,226.16 209.01,227.25 210.91,229.03"/>
    </edge>
    <edge id=":3922463615_3" function="internal">
        <lane id=":3922463615_3_0" index="0" disallow="tram rail_urban rail rail_electric rail_fast ship" speed="11.11" length="9.52" shape="205.87,220.52 213.11,226.70"/>
    </edge>
    <edge id=":44786156#1-AddedOnRampNode_0" function="internal">
        <lane id=":44786156#1-AddedOnRampNode_0_0" index="0" allow="private emergency authority army vip passenger hov taxi bus coach delivery truck trailer motorcycle evehicle custom1 custom2" speed="25.00" length="8.00" shape="147.56,106.18 141.19,101.34"/>
        <lane id=":44786156#1-AddedOnRampNode_0_1" index="1" allow="private emergency authority army vip passenger hov taxi bus coach delivery truck trailer motorcycle evehicle custom1 custom2" speed="25.00" length="8.00" shape="145.63,108.72 139.25,103.89"/>
        <lane id=":44786156#1-AddedOnRampNode_0_2" index="2" allow="private emergency authority army vip passenger hov taxi bus coach delivery truck trailer motorcycle evehicle custom1 custom2" speed="25.00" length="8.00" shape="143.69,111.27 137.32,106.43"/>
        <lane id=":44786156#1-AddedOnRampNode_0_3" index="3" allow="private emergency authority army vip passenger hov taxi bus coach delivery truck trailer motorcycle evehicle custom1 custom2" speed="25.00" length="8.00" shape="141.75,113.82 135.38,108.98"/>
    </edge>
    <edge id=":567939174_0" function="internal">
        <lane id=":567939174_0_0" index="0" allow="private emergency authority army vip passenger hov taxi bus coach delivery truck trailer motorcycle evehicle custom1 custom2" speed="15.28" length="29.10" shape="408.83,438.26 414.83,431.22 419.27,425.77 423.58,421.49 429.21,417.99"/>
        <lane id=":567939174_0_1" index="1" allow="private emergency authority army vip passenger hov taxi bus coach delivery truck trailer motorcycle evehicle custom1 custom2" speed="15.28" length="29.10" shape="408.83,438.26 414.47,430.82 418.07,424.55 421.54,419.47 426.78,415.61"/>
    </edge>
    <edge id=":567939174_2" function="internal">
        <lane id=":567939174_2_0" index="0" disallow="tram rail_urban rail rail_electric rail_fast ship" speed="16.67" length="24.77" shape="406.46,436.10 411.30,430.62 414.20,426.46 416.20,421.80 418.33,414.80"/>
        <lane id=":567939174_2_1" index="1" disallow="tram rail_urban rail rail_electric rail_fast ship" speed="16.67" length="23.29" shape="404.10,433.94 408.65,428.79 411.38,424.88 413.25,420.49 415.26,413.91"/>
        <lane id=":567939174_2_2" index="2" disallow="tram rail_urban rail rail_electric rail_fast ship" speed="16.67" length="22.85" shape="404.10,433.94 408.11,428.69 409.80,424.41 410.66,419.67 412.18,413.02"/>
    </edge>
    <edge id=":567939186_0" function="internal">
        <lane id=":567939186_0_0" index="0" allow="private emergency authority army vip passenger hov taxi bus coach delivery truck trailer motorcycle evehicle custom1 custom2" speed="13.40" length="14.48" shape="447.36,414.13 451.45,414.13 454.33,414.46 456.92,415.60 460.14,418.02"/>
        <lane id=":567939186_0_1" index="1" allow="private emergency authority army vip passenger hov taxi bus coach delivery truck trailer motorcycle evehicle custom1 custom2" speed="13.89" length="14.48" shape="448.09,411.01 452.54,411.77 455.72,412.14 458.61,413.08 462.20,415.56"/>
    </edge>
    <edge id=":567939186_2" function="internal">
        <lane id=":567939186_2_0" index="0" allow="private emergency authority army vip passenger hov taxi bus coach delivery truck trailer motorcycle evehicle custom1 custom2" speed="13.89" length="14.31" shape="450.07,407.61 452.94,410.82 454.87,413.06 456.92,415.17 460.14,418.02"/>
        <lane id=":567939186_2_1" index="1" allow="private emergency authority army vip passenger hov taxi bus coach delivery truck trailer motorcycle evehicle custom1 custom2" speed="13.89" length="14.31" shape="452.41,405.43 455.20,408.55 457.08,410.74 459.06,412.80 462.20,415.56"/>
    </edge>
    <edge id=":567939204_0" function="internal">
        <lane id=":567939204_0_0" index="0" allow="private emergency authority army vip passenger hov taxi bus coach delivery truck trailer motorcycle evehicle custom1 custom2" speed="13.89" length="21.41" shape="499.59,358.44 483.89,343.86"/>
        <lane id=":567939204_0_1" index="1" allow="private emergency authority army vip passenger hov taxi bus coach delivery truck trailer motorcycle evehicle custom1 custom2" speed="13.89" length="21.41" shape="497.23,360.59 481.55,346.04"/>
    </edge>
    <edge id=":567939204_2" function="internal">
        <lane id=":567939204_2_0" index="0" allow="private emergency authority army vip passenger hov taxi bus coach delivery truck trailer motorcycle evehicle custom1 custom2" speed="13.89" length="21.75" shape="497.23,360.59 492.63,356.09 488.78,353.62 484.50,352.08 478.56,350.32"/>
        <lane id=":567939204_2_1" index="1" allow="private emergency authority army vip passenger hov taxi bus coach delivery truck trailer motorcycle evehicle custom1 custom2" speed="13.89" length="20.56" shape="494.87,362.75 490.58,358.55 487.04,356.32 482.98,354.93 477.14,353.23"/>
    </edge>
    <edge id=":567939259_0" function="internal">
        <lane id=":567939259_0_0" index="0" allow="private emergency authority army vip passenger hov taxi bus coach delivery truck trailer motorcycle evehicle custom1 custom2" speed="13.89" length="14.42" shape="374.26,340.40 377.35,343.24 379.29,345.38 381.08,347.65 383.78,350.89"/>
        <lane id=":567939259_0_1" index="1" allow="private emergency authority army vip passenger hov taxi bus coach delivery truck trailer motorcycle evehicle custom1 custom2" speed="13.89" length="14.42" shape="376.35,337.98 379.55,340.91 381.55,343.11 383.41,345.45 386.19,348.79"/>
    </edge>
    <edge id=":567939259_2" function="internal">
        <lane id=":567939259_2_0" index="0" allow="private emergency authority army vip passenger hov taxi bus coach delivery truck trailer motorcycle evehicle custom1 custom2" speed="13.89" length="14.38" shape="376.35,337.98 379.50,340.87 381.76,342.85 384.31,344.25 388.34,345.38"/>
        <lane id=":567939259_2_1" index="1" allow="private emergency authority army vip passenger hov taxi bus coach delivery truck trailer motorcycle evehicle custom1 custom2" speed="13.89" length="13.90" shape="376.35,337.98 379.60,340.33 382.23,341.27 385.15,341.65 389.24,342.31"/>
    </edge>
    <edge id=":567939283_0" function="internal">
        <lane id=":567939283_0_0" index="0" allow="private emergency authority army vip passenger hov taxi bus coach delivery truck trailer motorcycle evehicle custom1 custom2" speed="14.35" length="14.44" shape="446.67,275.51 444.50,279.08 442.38,281.09 439.67,282.49 435.74,284.23"/>
        <lane id=":567939283_0_1" index="1" allow="private emergency authority army vip passenger hov taxi bus coach delivery truck trailer motorcycle evehicle custom1 custom2" speed="15.09" length="16.01" shape="449.51,276.98 447.14,280.97 444.85,283.29 441.92,284.93 437.60,286.89"/>
    </edge>
    <edge id=":567939283_2" function="internal">
        <lane id=":567939283_2_0" index="0" disallow="tram rail_urban rail rail_electric rail_fast ship" speed="16.67" length="24.55" shape="449.51,276.98 438.35,299.20"/>
        <lane id=":567939283_2_1" index="1" disallow="tram rail_urban rail rail_electric rail_fast ship" speed="16.67" length="24.55" shape="452.36,278.45 441.28,300.48"/>
        <lane id=":567939283_2_2" index="2" disallow="tram rail_urban rail rail_electric rail_fast ship" speed="16.67" length="24.55" shape="455.20,279.92 444.22,301.76"/>
        <lane id=":567939283_2_3" index="3" disallow="tram rail_urban rail rail_electric rail_fast ship" speed="16.67" length="24.55" shape="458.04,281.39 447.15,303.05"/>
    </edge>
    <edge id=":567939300_0" function="internal">
        <lane id=":567939300_0_0" index="0" allow="private emergency authority army vip passenger hov taxi bus coach delivery truck trailer motorcycle evehicle custom1 custom2" speed="13.89" length="12.45" shape="411.28,286.02 407.79,285.41 405.33,285.11 403.02,284.46 399.96,282.81"/>
        <lane id=":567939300_0_1" index="1" allow="private emergency authority army vip passenger hov taxi bus coach delivery truck trailer motorcycle evehicle custom1 custom2" speed="13.89" length="12.45" shape="410.57,289.14 406.76,288.45 404.08,288.08 401.57,287.33 398.24,285.50"/>
    </edge>
    <edge id=":567939300_2" function="internal">
        <lane id=":567939300_2_0" index="0" allow="private emergency authority army vip passenger hov taxi bus coach delivery truck trailer motorcycle evehicle custom1 custom2" speed="13.89" length="12.52" shape="408.36,292.54 406.45,289.16 404.98,286.89 403.10,285.01 399.96,282.81"/>
        <lane id=":567939300_2_1" index="1" allow="private emergency authority army vip passenger hov taxi bus coach delivery truck trailer motorcycle evehicle custom1 custom2" speed="13.89" length="12.52" shape="405.80,294.49 404.07,291.39 402.76,289.28 401.09,287.53 398.24,285.50"/>
    </edge>
    <edge id=":567939320_0" function="internal">
        <lane id=":567939320_0_0" index="0" allow="private emergency authority army vip passenger hov taxi bus coach delivery truck trailer motorcycle evehicle custom1 custom2" speed="19.45" length="3.08" shape="229.09,160.33 226.63,158.44"/>
        <lane id=":567939320_0_1" index="1" allow="private emergency authority army vip passenger hov taxi bus coach delivery truck trailer motorcycle evehicle custom1 custom2" speed="19.45" length="3.08" shape="227.11,162.84 224.68,160.98"/>
    </edge>
    <edge id=":567939320_2" function="internal">
        <lane id=":567939320_2_0" index="0" allow="private emergency authority army vip passenger hov taxi bus coach delivery truck trailer motorcycle evehicle custom1 custom2" speed="25.00" length="2.95" shape="225.11,165.38 222.73,163.52"/>
        <lane id=":567939320_2_1" index="1" allow="private emergency authority army vip passenger hov taxi bus coach delivery truck trailer motorcycle evehicle custom1 custom2" speed="25.00" length="2.95" shape="223.13,167.89 220.78,166.06"/>
        <lane id=":567939320_2_2" index="2" allow="private emergency authority army vip passenger hov taxi bus coach delivery truck trailer motorcycle evehicle custom1 custom2" speed="25.00" length="2.95" shape="221.15,170.40 218.84,168.60"/>
        <lane id=":567939320_2_3" index="3" allow="private emergency authority army vip passenger hov taxi bus coach delivery truck trailer motorcycle evehicle custom1 custom2" speed="25.00" length="2.95" shape="219.17,172.91 216.89,171.14"/>
    </edge>
    <edge id=":567939359_0" function="internal">
        <lane id=":567939359_0_0" index="0" allow="private emergency authority army vip passenger hov taxi bus coach delivery truck trailer motorcycle evehicle custom1 custom2" speed="13.89" length="8.21" shape="533.65,398.15 532.22,396.20 531.55,394.65 530.88,393.09 529.45,391.15"/>
        <lane id=":567939359_0_1" index="1" allow="private emergency authority army vip passenger hov taxi bus coach delivery truck trailer motorcycle evehicle custom1 custom2" speed="13.89" length="8.21" shape="531.28,400.30 529.86,398.35 529.19,396.80 528.51,395.24 527.08,393.31"/>
        <lane id=":567939359_0_2" index="2" allow="private emergency authority army vip passenger hov taxi bus coach delivery truck trailer motorcycle evehicle custom1 custom2" speed="13.89" length="8.21" shape="531.28,400.30 529.49,398.69 528.00,397.88 526.52,397.06 524.72,395.46"/>
    </edge>
    <edge id=":567939365_0" function="internal">
        <lane id=":567939365_0_0" index="0" allow="private emergency authority army vip passenger hov taxi bus coach delivery truck trailer motorcycle evehicle custom1 custom2" speed="15.28" length="37.05" shape="466.79,312.17 465.95,304.32 466.26,295.70 468.24,286.46 472.41,276.78"/>
        <lane id=":567939365_0_1" index="1" allow="private emergency authority army vip passenger hov taxi bus coach delivery truck trailer motorcycle evehicle custom1 custom2" speed="15.28" length="37.05" shape="463.45,311.64 462.70,303.64 463.19,294.66 465.35,285.07 469.61,275.23"/>
    </edge>
    <edge id=":567939365_2" function="internal">
        <lane id=":567939365_2_0" index="0" disallow="tram rail_urban rail rail_electric rail_fast ship" speed="16.67" length="37.00" shape="458.09,310.49 461.78,301.25 464.73,293.38 467.94,285.64 472.41,276.78"/>
        <lane id=":567939365_2_1" index="1" disallow="tram rail_urban rail rail_electric rail_fast ship" speed="16.67" length="37.00" shape="455.14,309.25 458.86,299.96 461.86,291.99 465.11,284.14 469.61,275.23"/>
        <lane id=":567939365_2_2" index="2" disallow="tram rail_urban rail rail_electric rail_fast ship" speed="16.67" length="37.00" shape="452.19,308.01 455.93,298.67 458.98,290.59 462.29,282.64 466.81,273.68"/>
    </edge>
    <edge id=":567939447_0" function="internal">
        <lane id=":567939447_0_0" index="0" disallow="tram rail_urban rail rail_electric rail_fast ship" speed="16.67" length="8.14" shape="421.42,404.16 422.31,402.01 423.28,400.69 424.28,399.37 425.26,397.24"/>
        <lane id=":567939447_0_1" index="1" disallow="tram rail_urban rail rail_electric rail_fast ship" speed="16.67" length="8.14" shape="418.35,403.27 419.25,401.08 420.23,399.73 421.24,398.39 422.23,396.23"/>
        <lane id=":567939447_0_2" index="2" disallow="tram rail_urban rail rail_electric rail_fast ship" speed="16.67" length="8.14" shape="415.27,402.38 416.18,400.15 417.17,398.77 418.19,397.41 419.19,395.21"/>
        <lane id=":567939447_0_3" index="3" disallow="tram rail_urban rail rail_electric rail_fast ship" speed="16.67" length="8.14" shape="415.27,402.38 415.71,399.98 415.66,398.27 415.63,396.56 416.16,394.19"/>
    </edge>
    <edge id=":5995617624_0" function="internal">
        <lane id=":5995617624_0_0" index="0" allow="private emergency authority army vip passenger hov taxi bus coach delivery truck trailer motorcycle evehicle custom1 custom2" speed="13.89" length="8.21" shape="512.07,456.55 513.79,458.23 514.70,459.66 515.60,461.10 517.30,462.81"/>
    </edge>
    <edge id=":6097703102_0" function="internal">
        <lane id=":6097703102_0_0" index="0" disallow="tram rail_urban rail rail_electric rail_fast ship" speed="16.67" length="8.32" shape="460.00,256.70 458.42,258.65 456.74,259.52 455.05,260.38 453.48,262.34"/>
        <lane id=":6097703102_0_1" index="1" disallow="tram rail_urban rail rail_electric rail_fast ship" speed="16.67" length="8.32" shape="460.00,256.70 456.32,263.80"/>
        <lane id=":6097703102_0_2" index="2" disallow="tram rail_urban rail rail_electric rail_fast ship" speed="16.67" length="8.32" shape="462.84,258.17 459.16,265.27"/>
        <lane id=":6097703102_0_3" index="3" disallow="tram rail_urban rail rail_electric rail_fast ship" speed="16.67" length="8.32" shape="465.68,259.64 462.01,266.74"/>
        <lane id=":6097703102_0_4" index="4" disallow="tram rail_urban rail rail_electric rail_fast ship" speed="16.67" length="8.32" shape="465.68,259.64 464.99,262.05 465.26,263.92 465.54,265.80 464.85,268.21"/>
    </edge>
    <edge id=":cluster_567939338_567939374_6103652715_6103652716_0" function="internal">
        <lane id=":cluster_567939338_567939374_6103652715_6103652716_0_0" index="0" disallow="tram rail_urban rail rail_electric rail_fast ship" speed="16.67" length="55.50" shape="429.04,320.50 410.26,372.80"/>
        <lane id=":cluster_567939338_567939374_6103652715_6103652716_0_1" index="1" disallow="tram rail_urban rail rail_electric rail_fast ship" speed="16.67" length="55.50" shape="431.95,321.84 413.22,374.01"/>
    </edge>
    <edge id=":cluster_567939338_567939374_6103652715_6103652716_2" function="internal">
        <lane id=":cluster_567939338_567939374_6103652715_6103652716_2_0" index="0" allow="private emergency authority army vip passenger hov taxi bus coach delivery truck trailer motorcycle evehicle custom1 custom2" speed="15.28" length="25.23" shape="434.85,323.18 431.79,338.59 432.51,348.08"/>
    </edge>
    <edge id=":cluster_567939338_567939374_6103652715_6103652716_3" function="internal">
        <lane id=":cluster_567939338_567939374_6103652715_6103652716_3_0" index="0" disallow="tram rail_urban rail rail_electric rail_fast ship" speed="4.70" length="5.87" shape="437.76,324.52 438.20,327.33 439.30,328.71 440.56,328.67"/>
    </edge>
    <edge id=":cluster_567939338_567939374_6103652715_6103652716_18" function="internal">
        <lane id=":cluster_567939338_567939374_6103652715_6103652716_18_0" index="0" allow="private emergency authority army vip passenger hov taxi bus coach delivery truck trailer motorcycle evehicle custom1 custom2" speed="15.28" length="33.68" shape="432.51,348.08 433.05,355.34 436.29,370.47 439.16,381.01"/>
    </edge>
    <edge id=":cluster_567939338_567939374_6103652715_6103652716_19" function="internal">