<?xml version="1.0" encoding="UTF-8"?>

<!-- generated on 2023-07-14 11:08:30 by Eclipse SUMO netconvert Version 1.17.0
<configuration xmlns:xsi="http://www.w3.org/2001/XMLSchema-instance" xsi:noNamespaceSchemaLocation="http://sumo.dlr.de/xsd/netconvertConfiguration.xsd">

    <input>
        <sumo-net-file value="osm.net.xml.gz"/>
    </input>

    <output>
        <output-file value="osm.net.xml"/>
        <output.street-names value="true"/>
    </output>

    <processing>
        <geometry.min-radius.fix.railways value="false"/>
        <geometry.max-grade.fix value="false"/>
        <offset.disable-normalization value="true"/>
        <lefthand value="1"/>
    </processing>

    <junctions>
        <no-turnarounds value="true"/>
        <junctions.corner-detail value="5"/>
        <junctions.limit-turn-speed value="5.50"/>
        <rectangular-lane-cut value="0"/>
    </junctions>

    <pedestrian>
        <walkingareas value="0"/>
    </pedestrian>

</configuration>
-->

<net version="1.16" junctionCornerDetail="5" lefthand="true" limitTurnSpeed="5.50" xmlns:xsi="http://www.w3.org/2001/XMLSchema-instance" xsi:noNamespaceSchemaLocation="http://sumo.dlr.de/xsd/net_file.xsd">

    <location netOffset="-362266.22,-158471.19" convBoundary="0.00,0.00,1112.44,1233.85" origBoundary="103.761933,1.433399,103.771927,1.444563" projParameter="+proj=utm +zone=48 +ellps=WGS84 +datum=WGS84 +units=m +no_defs"/>

    <type id="highway.bridleway" priority="1" numLanes="1" speed="2.78" allow="pedestrian" oneway="1" width="2.00"/>
    <type id="highway.bus_guideway" priority="1" numLanes="1" speed="27.78" allow="bus" oneway="1"/>
    <type id="highway.cycleway" priority="1" numLanes="1" speed="5.56" allow="bicycle" oneway="0" width="1.00"/>
    <type id="highway.footway" priority="1" numLanes="1" speed="2.78" allow="pedestrian" oneway="1" width="2.00"/>
    <type id="highway.ford" priority="1" numLanes="1" speed="2.78" allow="army" oneway="0"/>
    <type id="highway.living_street" priority="2" numLanes="1" speed="2.78" disallow="tram rail_urban rail rail_electric rail_fast ship" oneway="0"/>
    <type id="highway.motorway" priority="14" numLanes="2" speed="39.44" allow="private emergency authority army vip passenger hov taxi bus coach delivery truck trailer motorcycle evehicle custom1 custom2" oneway="1"/>
    <type id="highway.motorway_link" priority="9" numLanes="1" speed="22.22" allow="private emergency authority army vip passenger hov taxi bus coach delivery truck trailer motorcycle evehicle custom1 custom2" oneway="1"/>
    <type id="highway.path" priority="1" numLanes="1" speed="5.56" allow="pedestrian bicycle" oneway="0" width="2.00"/>
    <type id="highway.pedestrian" priority="1" numLanes="1" speed="2.78" allow="pedestrian" oneway="1" width="2.00"/>
    <type id="highway.primary" priority="12" numLanes="2" speed="27.78" disallow="tram rail_urban rail rail_electric rail_fast ship" oneway="0"/>
    <type id="highway.primary_link" priority="7" numLanes="1" speed="22.22" disallow="tram rail_urban rail rail_electric rail_fast ship" oneway="0"/>
    <type id="highway.raceway" priority="15" numLanes="2" speed="83.33" allow="vip" oneway="0"/>
    <type id="highway.residential" priority="3" numLanes="1" speed="13.89" disallow="tram rail_urban rail rail_electric rail_fast ship" oneway="0"/>
    <type id="highway.secondary" priority="11" numLanes="1" speed="27.78" disallow="tram rail_urban rail rail_electric rail_fast ship" oneway="0"/>
    <type id="highway.secondary_link" priority="6" numLanes="1" speed="22.22" disallow="tram rail_urban rail rail_electric rail_fast ship" oneway="0"/>
    <type id="highway.service" priority="1" numLanes="1" speed="5.56" allow="pedestrian delivery bicycle" oneway="0"/>
    <type id="highway.stairs" priority="1" numLanes="1" speed="1.39" allow="pedestrian" oneway="1" width="2.00"/>
    <type id="highway.step" priority="1" numLanes="1" speed="1.39" allow="pedestrian" oneway="1" width="2.00"/>
    <type id="highway.steps" priority="1" numLanes="1" speed="1.39" allow="pedestrian" oneway="1" width="2.00"/>
    <type id="highway.tertiary" priority="10" numLanes="1" speed="22.22" disallow="tram rail_urban rail rail_electric rail_fast ship" oneway="0"/>
    <type id="highway.tertiary_link" priority="5" numLanes="1" speed="22.22" disallow="tram rail_urban rail rail_electric rail_fast ship" oneway="0"/>
    <type id="highway.track" priority="1" numLanes="1" speed="5.56" allow="pedestrian motorcycle moped bicycle" oneway="0"/>
    <type id="highway.trunk" priority="13" numLanes="2" speed="27.78" disallow="pedestrian bicycle tram rail_urban rail rail_electric rail_fast ship" oneway="0"/>
    <type id="highway.trunk_link" priority="8" numLanes="1" speed="22.22" disallow="pedestrian bicycle tram rail_urban rail rail_electric rail_fast ship" oneway="0"/>
    <type id="highway.unclassified" priority="4" numLanes="1" speed="13.89" disallow="tram rail_urban rail rail_electric rail_fast ship" oneway="0"/>
    <type id="highway.unsurfaced" priority="1" numLanes="1" speed="8.33" disallow="tram rail_urban rail rail_electric rail_fast ship" oneway="0"/>
    <type id="railway.highspeed" priority="21" numLanes="1" speed="69.44" allow="rail_fast" oneway="1"/>
    <type id="railway.light_rail" priority="19" numLanes="1" speed="27.78" allow="rail_urban" oneway="1"/>
    <type id="railway.preserved" priority="16" numLanes="1" speed="27.78" allow="rail" oneway="1"/>
    <type id="railway.rail" priority="20" numLanes="1" speed="44.44" allow="rail" oneway="1"/>
    <type id="railway.subway" priority="18" numLanes="1" speed="27.78" allow="rail_urban" oneway="1"/>
    <type id="railway.tram" priority="17" numLanes="1" speed="13.89" allow="tram" oneway="1"/>

    <edge id=":1483308753_0" function="internal">
        <lane id=":1483308753_0_0" index="0" disallow="tram rail_urban rail rail_electric rail_fast ship" speed="13.89" length="14.87" shape="806.10,695.27 801.71,695.22 798.70,695.09 795.70,695.11 791.35,695.52"/>
        <lane id=":1483308753_0_1" index="1" disallow="tram rail_urban rail rail_electric rail_fast ship" speed="13.89" length="14.87" shape="806.15,698.47 801.70,698.43 798.65,698.31 795.61,698.34 791.20,698.76"/>
    </edge>
    <edge id=":1483308753_2" function="internal">
        <lane id=":1483308753_2_0" index="0" disallow="tram rail_urban rail rail_electric rail_fast ship" speed="13.89" length="14.93" shape="806.15,698.47 801.49,698.92 798.07,699.97 795.21,701.44 792.18,703.10"/>
    </edge>
    <edge id=":1483308776_0" function="internal">
        <lane id=":1483308776_0_0" index="0" disallow="pedestrian bicycle tram rail_urban rail rail_electric rail_fast ship" speed="13.89" length="8.08" shape="716.00,850.79 716.51,843.16"/>
        <lane id=":1483308776_0_1" index="1" disallow="pedestrian bicycle tram rail_urban rail rail_electric rail_fast ship" speed="13.89" length="8.08" shape="712.80,850.66 713.33,842.86"/>
        <lane id=":1483308776_0_2" index="2" disallow="pedestrian bicycle tram rail_urban rail rail_electric rail_fast ship" speed="13.89" length="8.08" shape="709.60,850.53 710.14,842.56"/>
        <lane id=":1483308776_0_3" index="3" disallow="pedestrian bicycle tram rail_urban rail rail_electric rail_fast ship" speed="13.89" length="8.08" shape="709.60,850.53 709.21,848.01 708.19,846.39 707.22,844.77 706.95,842.26"/>
    </edge>
    <edge id=":1483308778_0" function="internal">
        <lane id=":1483308778_0_0" index="0" allow="private emergency authority army vip passenger hov taxi bus coach delivery truck trailer motorcycle evehicle custom1 custom2" speed="13.89" length="4.12" shape="669.56,1004.11 669.44,1005.32 669.21,1006.13 668.99,1006.94 668.85,1008.15"/>
    </edge>
    <edge id=":1483308778_1" function="internal">
        <lane id=":1483308778_1_0" index="0" allow="private emergency authority army vip passenger hov taxi bus coach delivery truck trailer motorcycle evehicle custom1 custom2" speed="13.89" length="4.28" shape="672.76,1004.19 672.44,1008.45"/>
    </edge>
    <edge id=":1483308780_0" function="internal">
        <lane id=":1483308780_0_0" index="0" allow="private emergency authority army vip passenger hov taxi coach delivery truck trailer motorcycle moped evehicle custom1 custom2" speed="20.84" length="34.88" shape="686.36,1019.89 684.77,1030.73 681.70,1040.31 678.36,1047.94 675.94,1052.92"/>
    </edge>
    <edge id=":1483308780_1" function="internal">
        <lane id=":1483308780_1_0" index="0" disallow="pedestrian bicycle tram rail_urban rail rail_electric rail_fast ship" speed="20.84" length="30.80" shape="686.36,1019.89 685.40,1028.80 683.81,1034.94 682.16,1041.17 681.03,1050.32"/>
        <lane id=":1483308780_1_1" index="1" disallow="pedestrian bicycle tram rail_urban rail rail_electric rail_fast ship" speed="20.84" length="30.80" shape="689.56,1020.02 688.60,1028.92 687.01,1035.05 685.36,1041.26 684.23,1050.39"/>
        <lane id=":1483308780_1_2" index="2" disallow="pedestrian bicycle tram rail_urban rail rail_electric rail_fast ship" speed="20.84" length="30.80" shape="692.75,1020.14 691.80,1029.04 690.21,1035.16 688.56,1041.35 687.43,1050.46"/>
        <lane id=":1483308780_1_3" index="3" disallow="pedestrian bicycle tram rail_urban rail rail_electric rail_fast ship" speed="20.84" length="30.80" shape="692.75,1020.14 690.63,1050.53"/>
    </edge>
    <edge id=":1483308782_0" function="internal">
        <lane id=":1483308782_0_0" index="0" disallow="pedestrian bicycle tram rail_urban rail rail_electric rail_fast ship" speed="20.84" length="7.59" shape="708.39,1029.43 709.00,1021.64"/>
        <lane id=":1483308782_0_1" index="1" disallow="pedestrian bicycle tram rail_urban rail rail_electric rail_fast ship" speed="20.84" length="7.59" shape="705.21,1029.07 705.81,1021.51"/>
        <lane id=":1483308782_0_2" index="2" disallow="pedestrian bicycle tram rail_urban rail rail_electric rail_fast ship" speed="20.84" length="7.59" shape="702.03,1028.72 702.61,1021.38"/>
    </edge>
    <edge id=":1483308782_3" function="internal">
        <lane id=":1483308782_3_0" index="0" allow="private emergency authority army vip passenger hov taxi coach delivery truck trailer motorcycle moped evehicle custom1 custom2" speed="20.84" length="7.82" shape="708.04,1029.39 708.48,1027.11 708.74,1025.54 708.89,1023.96 709.00,1021.64"/>
    </edge>
    <edge id=":1483314913_0" function="internal">
        <lane id=":1483314913_0_0" index="0" allow="private emergency authority army vip passenger hov taxi coach delivery truck trailer motorcycle moped evehicle custom1 custom2" speed="27.78" length="10.52" shape="705.33,1062.18 705.87,1051.77"/>
        <lane id=":1483314913_0_1" index="1" allow="private emergency authority army vip passenger hov taxi coach delivery truck trailer motorcycle moped evehicle custom1 custom2" speed="27.78" length="10.52" shape="702.14,1062.02 702.69,1051.41"/>
    </edge>
    <edge id=":1483314913_2" function="internal">
        <lane id=":1483314913_2_0" index="0" disallow="pedestrian bicycle tram rail_urban rail rail_electric rail_fast ship" speed="27.78" length="15.49" shape="697.59,1066.41 698.24,1063.04 698.65,1059.79 699.00,1056.01 699.51,1051.05"/>
    </edge>
    <edge id=":1717987301_0" function="internal">
        <lane id=":1717987301_0_0" index="0" disallow="tram rail_urban rail rail_electric rail_fast ship" speed="13.89" length="12.83" shape="982.81,689.50 979.46,691.12 977.07,692.11 974.57,692.59 970.90,692.68"/>
        <lane id=":1717987301_0_1" index="1" disallow="tram rail_urban rail rail_electric rail_fast ship" speed="13.89" length="12.83" shape="983.39,692.76 979.87,694.42 977.35,695.39 974.71,695.82 970.84,695.88"/>
    </edge>
    <edge id=":1717987301_2" function="internal">
        <lane id=":1717987301_2_0" index="0" disallow="tram rail_urban rail rail_electric rail_fast ship" speed="13.89" length="13.25" shape="983.74,696.59 979.86,696.90 977.26,697.79 974.67,698.70 970.79,699.08"/>
        <lane id=":1717987301_2_1" index="1" disallow="tram rail_urban rail rail_electric rail_fast ship" speed="13.89" length="13.25" shape="983.62,699.79 979.77,700.10 977.18,700.99 974.59,701.90 970.73,702.28"/>
    </edge>
    <edge id=":1717987369_0" function="internal">
        <lane id=":1717987369_0_0" index="0" disallow="tram rail_urban rail rail_electric rail_fast ship" speed="13.89" length="7.44" shape="1008.89,743.90 1009.13,746.06 1009.70,747.51 1010.25,748.95 1010.42,751.11"/>
    </edge>
    <edge id=":1717987369_1" function="internal">
        <lane id=":1717987369_1_0" index="0" disallow="tram rail_urban rail rail_electric rail_fast ship" speed="12.20" length="6.67" shape="1005.16,744.76 1006.13,746.50 1006.81,747.73 1007.18,749.02 1007.23,750.96"/>
    </edge>
    <edge id=":1717987381_0" function="internal">
        <lane id=":1717987381_0_0" index="0" disallow="tram rail_urban rail rail_electric rail_fast ship" speed="13.89" length="29.75" shape="1008.64,645.86 1008.24,653.34 1007.19,660.70 1005.31,667.85 1002.39,674.68"/>
        <lane id=":1717987381_0_1" index="1" disallow="tram rail_urban rail rail_electric rail_fast ship" speed="13.89" length="30.41" shape="1011.84,645.92 1011.44,653.50 1010.40,661.11 1008.52,668.49 1005.61,675.43"/>
    </edge>
    <edge id=":1717987381_2" function="internal">
        <lane id=":1717987381_2_0" index="0" disallow="tram rail_urban rail rail_electric rail_fast ship" speed="13.89" length="30.18" shape="1011.84,645.92 1010.06,676.05"/>
    </edge>
    <edge id=":1849631757_0" function="internal">
        <lane id=":1849631757_0_0" index="0" disallow="tram rail_urban rail rail_electric rail_fast ship" speed="15.28" length="8.28" shape="649.59,722.85 647.67,721.40 646.62,720.08 645.68,718.63 644.05,716.79"/>
    </edge>
    <edge id=":1849631757_1" function="internal">
        <lane id=":1849631757_1_0" index="0" disallow="tram rail_urban rail rail_electric rail_fast ship" speed="16.67" length="8.36" shape="650.96,721.50 649.10,719.88 647.57,719.08 646.01,718.31 644.05,716.79"/>
        <lane id=":1849631757_1_1" index="1" disallow="tram rail_urban rail rail_electric rail_fast ship" speed="16.67" length="8.36" shape="648.68,723.75 646.84,722.16 645.33,721.37 643.78,720.62 641.85,719.12"/>
    </edge>
    <edge id=":1849631759_0" function="internal">
        <lane id=":1849631759_0_0" index="0" disallow="tram rail_urban rail rail_electric rail_fast ship" speed="16.67" length="8.20" shape="663.83,737.54 662.39,735.60 661.70,734.04 661.00,732.50 659.53,730.58"/>
        <lane id=":1849631759_0_1" index="1" disallow="tram rail_urban rail rail_electric rail_fast ship" speed="16.67" length="8.20" shape="661.48,739.70 660.04,737.77 659.36,736.23 658.67,734.68 657.21,732.77"/>
        <lane id=":1849631759_0_2" index="2" disallow="tram rail_urban rail rail_electric rail_fast ship" speed="16.67" length="8.20" shape="661.48,739.70 659.68,738.12 658.19,737.32 656.70,736.54 654.88,734.97"/>
    </edge>
    <edge id=":236740571_0" function="internal">
        <lane id=":236740571_0_0" index="0" disallow="tram rail_urban rail rail_electric rail_fast ship" speed="13.89" length="19.75" shape="730.74,813.37 735.61,815.93 738.59,818.35 740.86,821.53 743.63,826.36"/>
        <lane id=":236740571_0_1" index="1" disallow="tram rail_urban rail rail_electric rail_fast ship" speed="13.89" length="19.75" shape="733.08,810.94 738.16,813.66 741.21,816.27 743.54,819.67 746.41,824.77"/>
        <lane id=":236740571_0_2" index="2" disallow="tram rail_urban rail rail_electric rail_fast ship" speed="13.89" length="19.75" shape="735.42,808.50 740.71,811.38 743.84,814.18 746.21,817.81 749.19,823.18"/>
    </edge>
    <edge id=":236740571_3" function="internal">
        <lane id=":236740571_3_0" index="0" disallow="tram rail_urban rail rail_electric rail_fast ship" speed="13.89" length="20.35" shape="740.24,805.24 741.00,809.09 741.87,813.49 743.47,818.65 746.41,824.77"/>
        <lane id=":236740571_3_1" index="1" disallow="tram rail_urban rail rail_electric rail_fast ship" speed="13.89" length="20.35" shape="740.24,805.24 741.45,808.87 743.30,812.77 745.86,817.39 749.19,823.18"/>
    </edge>
    <edge id=":4581976416_0" function="internal">
        <lane id=":4581976416_0_0" index="0" disallow="tram rail_urban rail rail_electric rail_fast ship" speed="13.89" length="0.29" shape="743.38,710.24 743.14,710.34"/>
        <lane id=":4581976416_0_1" index="1" disallow="tram rail_urban rail rail_electric rail_fast ship" speed="13.89" length="0.29" shape="744.68,713.16 744.39,713.29"/>
    </edge>
    <edge id=":4581976418_0" function="internal">
        <lane id=":4581976418_0_0" index="0" allow="private emergency authority army vip passenger hov taxi bus coach delivery truck trailer motorcycle evehicle custom1 custom2" speed="13.89" length="6.55" shape="796.57,686.26 794.77,685.72 793.68,684.93 792.62,684.03 790.90,683.15"/>
    </edge>
    <edge id=":4606929995_0" function="internal">
        <lane id=":4606929995_0_0" index="0" disallow="tram rail_urban rail rail_electric rail_fast ship" speed="16.67" length="8.32" shape="632.99,736.72 634.45,738.76 634.81,740.61 635.18,742.46 636.62,744.51"/>
        <lane id=":4606929995_0_1" index="1" disallow="tram rail_urban rail rail_electric rail_fast ship" speed="16.67" length="8.32" shape="632.99,736.72 638.82,742.18"/>
        <lane id=":4606929995_0_2" index="2" disallow="tram rail_urban rail rail_electric rail_fast ship" speed="16.67" length="8.32" shape="635.18,734.38 641.01,739.85"/>
        <lane id=":4606929995_0_3" index="3" disallow="tram rail_urban rail rail_electric rail_fast ship" speed="16.67" length="8.32" shape="637.36,732.04 643.21,737.52"/>
        <lane id=":4606929995_0_4" index="4" disallow="tram rail_urban rail rail_electric rail_fast ship" speed="16.67" length="8.32" shape="637.36,732.04 639.51,733.36 641.39,733.61 643.26,733.87 645.40,735.19"/>
    </edge>
    <edge id=":4612790439_0" function="internal">
        <lane id=":4612790439_0_0" index="0" disallow="tram rail_urban rail rail_electric rail_fast ship" speed="10.08" length="7.42" shape="1013.49,877.73 1013.56,875.54 1013.78,874.00 1014.43,872.63 1015.75,870.93"/>
    </edge>
    <edge id=":4612790439_1" function="internal">
        <lane id=":4612790439_1_0" index="0" disallow="tram rail_urban rail rail_electric rail_fast ship" speed="13.89" length="7.73" shape="1010.29,877.63 1010.58,875.37 1011.11,873.86 1011.64,872.35 1011.90,870.09"/>
        <lane id=":4612790439_1_1" index="1" disallow="tram rail_urban rail rail_electric rail_fast ship" speed="13.89" length="7.73" shape="1007.09,877.53 1007.38,875.28 1007.91,873.78 1008.44,872.29 1008.70,870.04"/>
    </edge>
    <edge id=":4612790444_0" function="internal">
        <lane id=":4612790444_0_0" index="0" disallow="tram rail_urban rail rail_electric rail_fast ship" speed="13.89" length="4.34" shape="793.87,941.61 791.85,945.42"/>
        <lane id=":4612790444_0_1" index="1" disallow="tram rail_urban rail rail_electric rail_fast ship" speed="13.89" length="4.34" shape="796.86,940.48 794.87,944.37"/>
    </edge>
    <edge id=":4734593260_0" function="internal">
        <lane id=":4734593260_0_0" index="0" allow="bus" speed="13.89" length="0.30" shape="705.98,628.94 705.97,629.22"/>
        <lane id=":4734593260_0_1" index="1" allow="private emergency authority army vip passenger hov taxi bus coach delivery truck trailer motorcycle evehicle custom1 custom2" speed="13.89" length="0.30" shape="709.18,629.05 709.16,629.35"/>
        <lane id=":4734593260_0_2" index="2" allow="private emergency authority army vip passenger hov taxi bus coach delivery truck trailer motorcycle evehicle custom1 custom2" speed="13.89" length="0.30" shape="712.37,629.16 712.36,629.47"/>
    </edge>
    <edge id=":4734608409_0" function="internal">
        <lane id=":4734608409_0_0" index="0" disallow="tram rail_urban rail rail_electric rail_fast ship" speed="13.89" length="15.49" shape="1008.33,950.12 1008.74,945.98 1009.74,943.22 1010.82,940.47 1011.44,936.34"/>
        <lane id=":4734608409_0_1" index="1" disallow="tram rail_urban rail rail_electric rail_fast ship" speed="13.89" length="15.49" shape="1005.13,950.16 1005.54,945.60 1006.56,942.55 1007.65,939.51 1008.29,934.95"/>
        <lane id=":4734608409_0_2" index="2" disallow="tram rail_urban rail rail_electric rail_fast ship" speed="13.89" length="15.49" shape="1005.13,950.16 1005.15,933.56"/>
    </edge>
    <edge id=":4734608409_3" function="internal">
        <lane id=":4734608409_3_0" index="0" disallow="tram rail_urban rail rail_electric rail_fast ship" speed="13.89" length="17.10" shape="1001.92,933.10 1001.93,950.21"/>
    </edge>
    <edge id=":4831343088_0" function="internal">
        <lane id=":4831343088_0_0" index="0" allow="private emergency authority army vip passenger hov taxi coach delivery truck trailer motorcycle moped evehicle custom1 custom2" speed="5.89" length="3.34" shape="681.01,1050.52 680.95,1051.35 680.91,1052.26 681.02,1053.10 681.40,1053.76"/>
        <lane id=":4831343088_0_1" index="1" allow="private emergency authority army vip passenger hov taxi coach delivery truck trailer motorcycle moped evehicle custom1 custom2" speed="4.13" length="1.40" shape="684.22,1050.59 684.15,1051.15 684.02,1051.48 683.84,1051.58 683.60,1051.44"/>
    </edge>
    <edge id=":4831343088_2" function="internal">
        <lane id=":4831343088_2_0" index="0" disallow="pedestrian bicycle tram rail_urban rail rail_electric rail_fast ship" speed="27.78" length="0.20" shape="687.42,1050.66 687.42,1050.80"/>
        <lane id=":4831343088_2_1" index="1" disallow="pedestrian bicycle tram rail_urban rail rail_electric rail_fast ship" speed="27.78" length="0.20" shape="690.62,1050.73 690.61,1051.00"/>
    </edge>
    <edge id=":4924633435_0" function="internal">
        <lane id=":4924633435_0_0" index="0" allow="private emergency authority army vip passenger hov taxi coach delivery truck trailer motorcycle moped evehicle custom1 custom2" speed="27.78" length="0.23" shape="737.90,1128.74 737.75,1128.43"/>
        <lane id=":4924633435_0_1" index="1" allow="private emergency authority army vip passenger hov taxi coach delivery truck trailer motorcycle moped evehicle custom1 custom2" speed="27.78" length="0.23" shape="734.99,1130.07 734.94,1129.97"/>
    </edge>
    <edge id=":5189157401_0" function="internal">
        <lane id=":5189157401_0_0" index="0" allow="private emergency authority army vip passenger hov taxi bus coach delivery truck trailer motorcycle evehicle custom1 custom2" speed="13.89" length="0.44" shape="700.88,745.41 700.86,745.71"/>
        <lane id=":5189157401_0_1" index="1" allow="private emergency authority army vip passenger hov taxi bus coach delivery truck trailer motorcycle evehicle custom1 custom2" speed="13.89" length="0.44" shape="704.08,745.57 704.05,746.01"/>
        <lane id=":5189157401_0_2" index="2" allow="private emergency authority army vip passenger hov taxi bus coach delivery truck trailer motorcycle evehicle custom1 custom2" speed="13.89" length="0.44" shape="707.28,745.73 707.23,746.31"/>
    </edge>
    <edge id=":5189157405_0" function="internal">
        <lane id=":5189157405_0_0" index="0" allow="private emergency authority army vip passenger hov taxi bus coach delivery truck trailer motorcycle evehicle custom1 custom2" speed="13.89" length="0.96" shape="730.19,710.44 730.05,711.46"/>
        <lane id=":5189157405_0_1" index="1" allow="private emergency authority army vip passenger hov taxi bus coach delivery truck trailer motorcycle evehicle custom1 custom2" speed="13.89" length="0.96" shape="727.02,709.99 726.90,710.87"/>
    </edge>
    <edge id=":563800083_0" function="internal">
        <lane id=":563800083_0_0" index="0" allow="private emergency authority army vip passenger hov taxi bus coach delivery truck trailer motorcycle evehicle custom1 custom2" speed="13.89" length="12.54" shape="842.56,690.14 838.85,689.89 836.33,689.52 833.83,689.01 830.16,688.36"/>
        <lane id=":563800083_0_1" index="1" allow="private emergency authority army vip passenger hov taxi bus coach delivery truck trailer motorcycle evehicle custom1 custom2" speed="13.89" length="12.91" shape="842.43,693.34 838.61,693.08 836.02,692.71 833.44,692.19 829.66,691.52"/>
    </edge>
    <edge id=":563800083_2" function="internal">
        <lane id=":563800083_2_0" index="0" disallow="tram rail_urban rail rail_electric rail_fast ship" speed="13.89" length="12.89" shape="842.29,696.54 829.41,694.95"/>
        <lane id=":563800083_2_1" index="1" disallow="tram rail_urban rail rail_electric rail_fast ship" speed="13.89" length="12.89" shape="842.16,699.73 829.46,698.15"/>
    </edge>
    <edge id=":563800824_0" function="internal">
        <lane id=":563800824_0_0" index="0" allow="private emergency authority army vip passenger hov taxi coach delivery truck trailer motorcycle evehicle custom1 custom2" speed="20.84" length="3.26" shape="666.68,1064.66 666.17,1067.89"/>
    </edge>
    <edge id=":563800824_1" function="internal">
        <lane id=":563800824_1_0" index="0" allow="private emergency authority army vip passenger hov taxi coach delivery truck trailer motorcycle moped evehicle custom1 custom2" speed="27.78" length="3.37" shape="670.33,1065.28 669.92,1066.20 669.68,1066.84 669.51,1067.50 669.32,1068.49"/>
    </edge>
    <edge id=":563801088_0" function="internal">
        <lane id=":563801088_0_0" index="0" allow="private emergency authority army vip passenger hov taxi coach delivery truck trailer motorcycle moped evehicle custom1 custom2" speed="27.78" length="18.01" shape="740.20,1103.55 736.83,1099.83 734.44,1097.30 732.41,1094.54 730.09,1090.14"/>
        <lane id=":563801088_0_1" index="1" allow="private emergency authority army vip passenger hov taxi coach delivery truck trailer motorcycle moped evehicle custom1 custom2" speed="27.78" length="18.01" shape="738.64,1106.66 734.82,1102.44 732.12,1099.59 729.82,1096.48 727.19,1091.50"/>
    </edge>
    <edge id=":563801088_2" function="internal">
        <lane id=":563801088_2_0" index="0" allow="private emergency authority army vip passenger hov taxi coach delivery truck trailer motorcycle moped evehicle custom1 custom2" speed="27.78" length="27.45" shape="738.92,1116.22 736.62,1110.09 734.09,1104.94 731.05,1099.25 727.19,1091.50"/>
        <lane id=":563801088_2_1" index="1" allow="private emergency authority army vip passenger hov taxi coach delivery truck trailer motorcycle moped evehicle custom1 custom2" speed="27.78" length="27.45" shape="736.03,1117.69 733.73,1111.54 731.20,1106.36 728.16,1100.64 724.29,1092.86"/>
    </edge>
    <edge id=":563801088_4" function="internal">
        <lane id=":563801088_4_0" index="0" allow="private emergency authority army vip passenger hov taxi coach delivery truck trailer motorcycle moped evehicle custom1 custom2" speed="27.78" length="27.81" shape="732.67,1118.85 732.32,1112.14 731.86,1106.17 730.44,1099.69 727.19,1091.50"/>
        <lane id=":563801088_4_1" index="1" allow="private emergency authority army vip passenger hov taxi coach delivery truck trailer motorcycle moped evehicle custom1 custom2" speed="27.78" length="27.81" shape="729.51,1119.56 729.19,1112.92 728.78,1107.09 727.44,1100.83 724.29,1092.86"/>
    </edge>
    <edge id=":563801102_0" function="internal">
        <lane id=":563801102_0_0" index="0" allow="private emergency authority army vip passenger hov taxi coach delivery truck trailer motorcycle evehicle custom1 custom2" speed="13.92" length="5.80" shape="724.65,1078.58 724.02,1077.01 723.80,1075.86 723.80,1074.65 723.83,1072.92"/>
        <lane id=":563801102_0_1" index="1" allow="private emergency authority army vip passenger hov taxi coach delivery truck trailer motorcycle evehicle custom1 custom2" speed="15.45" length="7.19" shape="721.76,1079.94 720.95,1078.00 720.64,1076.58 720.61,1075.09 720.63,1072.95"/>
    </edge>
    <edge id=":563801102_2" function="internal">
        <lane id=":563801102_2_0" index="0" allow="private emergency authority army vip passenger hov taxi coach delivery truck trailer motorcycle moped evehicle custom1 custom2" speed="27.78" length="7.74" shape="718.86,1081.31 718.12,1079.16 717.94,1077.56 717.75,1075.98 716.94,1073.86"/>
    </edge>
    <edge id=":563801141_0" function="internal">
        <lane id=":563801141_0_0" index="0" disallow="tram rail_urban rail rail_electric rail_fast ship" speed="13.89" length="8.21" shape="776.18,890.56 776.84,892.86 776.91,894.55 776.97,896.24 777.59,898.56"/>
        <lane id=":563801141_0_1" index="1" disallow="tram rail_urban rail rail_electric rail_fast ship" speed="13.89" length="8.21" shape="779.15,889.37 779.81,891.69 779.89,893.38 779.96,895.09 780.58,897.43"/>
    </edge>
    <edge id=":563801527_0" function="internal">
        <lane id=":563801527_0_0" index="0" disallow="pedestrian bicycle tram rail_urban rail rail_electric rail_fast ship" speed="27.78" length="8.09" shape="683.96,1091.95 683.19,1094.18 682.28,1095.58 681.34,1096.96 680.44,1099.17"/>
    </edge>
    <edge id=":5681549993_0" function="internal">
        <lane id=":5681549993_0_0" index="0" disallow="tram rail_urban rail rail_electric rail_fast ship" speed="16.67" length="8.20" shape="611.48,714.37 613.05,716.20 613.84,717.71 614.63,719.21 616.22,721.03"/>
        <lane id=":5681549993_0_1" index="1" disallow="tram rail_urban rail rail_electric rail_fast ship" speed="16.67" length="8.20" shape="613.68,712.05 615.25,713.88 616.03,715.38 616.82,716.87 618.40,718.69"/>