<?xml version="1.0" encoding="UTF-8"?>

<!-- generated on 2023-07-18 14:04:47 by Eclipse SUMO netconvert Version 1.17.0
<configuration xmlns:xsi="http://www.w3.org/2001/XMLSchema-instance" xsi:noNamespaceSchemaLocation="http://sumo.dlr.de/xsd/netconvertConfiguration.xsd">

    <input>
        <sumo-net-file value="osm.net.xml.gz"/>
    </input>

    <output>
        <output-file value="osm.net.xml"/>
        <output.street-names value="true"/>
    </output>

    <processing>
        <geometry.min-radius.fix.railways value="false"/>
        <geometry.max-grade.fix value="false"/>
        <offset.disable-normalization value="true"/>
        <lefthand value="1"/>
    </processing>

    <junctions>
        <no-turnarounds value="true"/>
        <junctions.corner-detail value="5"/>
        <junctions.limit-turn-speed value="5.50"/>
        <rectangular-lane-cut value="0"/>
    </junctions>

    <pedestrian>
        <walkingareas value="0"/>
    </pedestrian>

</configuration>
-->

<net version="1.16" junctionCornerDetail="5" lefthand="true" limitTurnSpeed="5.50" xmlns:xsi="http://www.w3.org/2001/XMLSchema-instance" xsi:noNamespaceSchemaLocation="http://sumo.dlr.de/xsd/net_file.xsd">

    <location netOffset="-385996.65,-147545.83" convBoundary="-0.64,0.00,890.15,750.14" origBoundary="103.975258,1.334677,103.983258,1.341464" projParameter="+proj=utm +zone=48 +ellps=WGS84 +datum=WGS84 +units=m +no_defs"/>

    <type id="highway.bridleway" priority="1" numLanes="1" speed="2.78" allow="pedestrian" oneway="1" width="2.00"/>
    <type id="highway.bus_guideway" priority="1" numLanes="1" speed="27.78" allow="bus" oneway="1"/>
    <type id="highway.cycleway" priority="1" numLanes="1" speed="5.56" allow="bicycle" oneway="0" width="1.00"/>
    <type id="highway.footway" priority="1" numLanes="1" speed="2.78" allow="pedestrian" oneway="1" width="2.00"/>
    <type id="highway.ford" priority="1" numLanes="1" speed="2.78" allow="army" oneway="0"/>
    <type id="highway.living_street" priority="2" numLanes="1" speed="2.78" disallow="tram rail_urban rail rail_electric rail_fast ship" oneway="0"/>
    <type id="highway.motorway" priority="14" numLanes="2" speed="39.44" allow="private emergency authority army vip passenger hov taxi bus coach delivery truck trailer motorcycle evehicle custom1 custom2" oneway="1"/>
    <type id="highway.motorway_link" priority="9" numLanes="1" speed="22.22" allow="private emergency authority army vip passenger hov taxi bus coach delivery truck trailer motorcycle evehicle custom1 custom2" oneway="1"/>
    <type id="highway.path" priority="1" numLanes="1" speed="5.56" allow="pedestrian bicycle" oneway="0" width="2.00"/>
    <type id="highway.pedestrian" priority="1" numLanes="1" speed="2.78" allow="pedestrian" oneway="1" width="2.00"/>
    <type id="highway.primary" priority="12" numLanes="2" speed="27.78" disallow="tram rail_urban rail rail_electric rail_fast ship" oneway="0"/>
    <type id="highway.primary_link" priority="7" numLanes="1" speed="22.22" disallow="tram rail_urban rail rail_electric rail_fast ship" oneway="0"/>
    <type id="highway.raceway" priority="15" numLanes="2" speed="83.33" allow="vip" oneway="0"/>
    <type id="highway.residential" priority="3" numLanes="1" speed="13.89" disallow="tram rail_urban rail rail_electric rail_fast ship" oneway="0"/>
    <type id="highway.secondary" priority="11" numLanes="1" speed="27.78" disallow="tram rail_urban rail rail_electric rail_fast ship" oneway="0"/>
    <type id="highway.secondary_link" priority="6" numLanes="1" speed="22.22" disallow="tram rail_urban rail rail_electric rail_fast ship" oneway="0"/>
    <type id="highway.service" priority="1" numLanes="1" speed="5.56" allow="pedestrian delivery bicycle" oneway="0"/>
    <type id="highway.stairs" priority="1" numLanes="1" speed="1.39" allow="pedestrian" oneway="1" width="2.00"/>
    <type id="highway.step" priority="1" numLanes="1" speed="1.39" allow="pedestrian" oneway="1" width="2.00"/>
    <type id="highway.steps" priority="1" numLanes="1" speed="1.39" allow="pedestrian" oneway="1" width="2.00"/>
    <type id="highway.tertiary" priority="10" numLanes="1" speed="22.22" disallow="tram rail_urban rail rail_electric rail_fast ship" oneway="0"/>
    <type id="highway.tertiary_link" priority="5" numLanes="1" speed="22.22" disallow="tram rail_urban rail rail_electric rail_fast ship" oneway="0"/>
    <type id="highway.track" priority="1" numLanes="1" speed="5.56" allow="pedestrian motorcycle moped bicycle" oneway="0"/>
    <type id="highway.trunk" priority="13" numLanes="2" speed="27.78" disallow="pedestrian bicycle tram rail_urban rail rail_electric rail_fast ship" oneway="0"/>
    <type id="highway.trunk_link" priority="8" numLanes="1" speed="22.22" disallow="pedestrian bicycle tram rail_urban rail rail_electric rail_fast ship" oneway="0"/>
    <type id="highway.unclassified" priority="4" numLanes="1" speed="13.89" disallow="tram rail_urban rail rail_electric rail_fast ship" oneway="0"/>
    <type id="highway.unsurfaced" priority="1" numLanes="1" speed="8.33" disallow="tram rail_urban rail rail_electric rail_fast ship" oneway="0"/>
    <type id="railway.highspeed" priority="21" numLanes="1" speed="69.44" allow="rail_fast" oneway="1"/>
    <type id="railway.light_rail" priority="19" numLanes="1" speed="27.78" allow="rail_urban" oneway="1"/>
    <type id="railway.preserved" priority="16" numLanes="1" speed="27.78" allow="rail" oneway="1"/>
    <type id="railway.rail" priority="20" numLanes="1" speed="44.44" allow="rail" oneway="1"/>
    <type id="railway.subway" priority="18" numLanes="1" speed="27.78" allow="rail_urban" oneway="1"/>
    <type id="railway.tram" priority="17" numLanes="1" speed="13.89" allow="tram" oneway="1"/>

    <edge id=":139735890_0" function="internal">
        <lane id=":139735890_0_0" index="0" allow="private emergency authority army vip passenger hov taxi bus coach delivery truck trailer motorcycle evehicle custom1 custom2" speed="18.05" length="3.08" shape="494.04,173.96 492.62,171.17"/>
        <lane id=":139735890_0_1" index="1" allow="private emergency authority army vip passenger hov taxi bus coach delivery truck trailer motorcycle evehicle custom1 custom2" speed="18.05" length="3.08" shape="491.13,175.31 489.75,172.60"/>
    </edge>
    <edge id=":139735890_2" function="internal">
        <lane id=":139735890_2_0" index="0" allow="private emergency authority army vip passenger hov taxi bus coach delivery truck trailer motorcycle evehicle custom1 custom2" speed="25.00" length="2.90" shape="488.17,176.68 486.89,174.02"/>
        <lane id=":139735890_2_1" index="1" allow="private emergency authority army vip passenger hov taxi bus coach delivery truck trailer motorcycle evehicle custom1 custom2" speed="25.00" length="2.90" shape="485.26,178.03 484.02,175.45"/>
    </edge>
    <edge id=":158103325_0" function="internal">
        <lane id=":158103325_0_0" index="0" allow="private emergency authority army vip passenger hov taxi bus coach delivery truck trailer motorcycle evehicle custom1 custom2" speed="16.66" length="3.04" shape="615.37,534.56 616.57,537.39"/>
        <lane id=":158103325_0_1" index="1" allow="private emergency authority army vip passenger hov taxi bus coach delivery truck trailer motorcycle evehicle custom1 custom2" speed="16.66" length="3.04" shape="618.33,533.36 619.52,536.16"/>
        <lane id=":158103325_0_2" index="2" allow="private emergency authority army vip passenger hov taxi bus coach delivery truck trailer motorcycle evehicle custom1 custom2" speed="16.66" length="3.04" shape="621.30,532.16 622.48,534.92"/>
    </edge>
    <edge id=":158103325_3" function="internal">
        <lane id=":158103325_3_0" index="0" allow="private emergency authority army vip passenger hov taxi bus coach delivery truck trailer motorcycle evehicle custom1 custom2" speed="22.22" length="2.94" shape="624.30,530.94 625.43,533.69"/>
        <lane id=":158103325_3_1" index="1" allow="private emergency authority army vip passenger hov taxi bus coach delivery truck trailer motorcycle evehicle custom1 custom2" speed="22.22" length="2.94" shape="627.27,529.74 628.38,532.45"/>
    </edge>
    <edge id=":158103565_0" function="internal">
        <lane id=":158103565_0_0" index="0" allow="private emergency authority army vip passenger hov taxi bus coach delivery truck trailer motorcycle evehicle custom1 custom2" speed="19.45" length="3.08" shape="168.62,383.77 165.77,384.94"/>
    </edge>
    <edge id=":158103565_1" function="internal">
        <lane id=":158103565_1_0" index="0" allow="private emergency authority army vip passenger hov taxi bus coach delivery truck trailer motorcycle evehicle custom1 custom2" speed="19.45" length="2.90" shape="169.74,386.83 166.98,387.90"/>
        <lane id=":158103565_1_1" index="1" allow="private emergency authority army vip passenger hov taxi bus coach delivery truck trailer motorcycle evehicle custom1 custom2" speed="19.45" length="2.90" shape="170.85,389.83 168.20,390.86"/>
    </edge>
    <edge id=":1726742348_0" function="internal">
        <lane id=":1726742348_0_0" index="0" allow="private emergency authority army vip passenger hov taxi bus coach delivery truck trailer motorcycle evehicle custom1 custom2" speed="19.45" length="0.30" shape="214.79,384.48 215.06,384.37"/>
        <lane id=":1726742348_0_1" index="1" allow="private emergency authority army vip passenger hov taxi bus coach delivery truck trailer motorcycle evehicle custom1 custom2" speed="19.45" length="0.30" shape="213.50,381.56 213.78,381.43"/>
    </edge>
    <edge id=":1726750768_0" function="internal">
        <lane id=":1726750768_0_0" index="0" allow="private emergency authority army vip passenger hov taxi bus coach delivery truck trailer motorcycle evehicle custom1 custom2" speed="11.11" length="0.24" shape="663.41,543.95 663.34,543.77"/>
        <lane id=":1726750768_0_1" index="1" allow="private emergency authority army vip passenger hov taxi bus coach delivery truck trailer motorcycle evehicle custom1 custom2" speed="11.11" length="0.24" shape="660.44,545.14 660.33,544.86"/>
    </edge>
    <edge id=":1769204219_0" function="internal">
        <lane id=":1769204219_0_0" index="0" disallow="tram rail_urban rail rail_electric rail_fast ship" speed="13.89" length="0.10" shape="750.65,642.71 750.65,642.71"/>
    </edge>
    <edge id=":395050030_0" function="internal">
        <lane id=":395050030_0_0" index="0" allow="private emergency authority army vip passenger hov taxi bus coach delivery truck trailer motorcycle evehicle custom1 custom2" speed="12.50" length="0.30" shape="488.81,254.71 488.55,254.82"/>
        <lane id=":395050030_0_1" index="1" allow="private emergency authority army vip passenger hov taxi bus coach delivery truck trailer motorcycle evehicle custom1 custom2" speed="12.50" length="0.30" shape="490.08,257.65 489.79,257.77"/>
    </edge>
    <edge id=":395050049_0" function="internal">
        <lane id=":395050049_0_0" index="0" allow="private emergency authority army vip passenger hov taxi bus coach delivery truck trailer motorcycle evehicle custom1 custom2" speed="12.50" length="0.30" shape="492.27,266.06 492.56,265.94"/>
        <lane id=":395050049_0_1" index="1" allow="private emergency authority army vip passenger hov taxi bus coach delivery truck trailer motorcycle evehicle custom1 custom2" speed="12.50" length="0.30" shape="491.05,263.10 491.32,262.99"/>
    </edge>
    <edge id=":395051079_0" function="internal">
        <lane id=":395051079_0_0" index="0" allow="private emergency authority army vip passenger hov taxi bus coach delivery truck trailer motorcycle evehicle custom1 custom2" speed="11.11" length="0.34" shape="555.61,239.45 555.66,239.43 555.69,239.42 555.72,239.41 555.77,239.39"/>
        <lane id=":395051079_0_1" index="1" allow="private emergency authority army vip passenger hov taxi bus coach delivery truck trailer motorcycle evehicle custom1 custom2" speed="11.11" length="0.34" shape="554.37,236.50 554.51,236.44 554.61,236.41 554.71,236.37 554.85,236.33"/>
    </edge>
    <edge id=":4748287526_0" function="internal">
        <lane id=":4748287526_0_0" index="0" disallow="tram rail_urban rail rail_electric rail_fast ship" speed="13.89" length="8.17" shape="739.66,204.83 738.92,202.54 738.76,200.86 738.59,199.18 737.80,196.92"/>
    </edge>
    <edge id=":4748287527_0" function="internal">
        <lane id=":4748287527_0_0" index="0" disallow="tram rail_urban rail rail_electric rail_fast ship" speed="13.89" length="0.43" shape="737.64,135.68 737.76,135.64 737.84,135.62 737.93,135.60 738.05,135.59"/>
    </edge>
    <edge id=":4748287534_0" function="internal">
        <lane id=":4748287534_0_0" index="0" disallow="tram rail_urban rail rail_electric rail_fast ship" speed="13.89" length="7.88" shape="760.93,167.99 760.13,170.13 759.21,171.44 758.22,172.74 757.26,174.83"/>
        <lane id=":4748287534_0_1" index="1" disallow="tram rail_urban rail rail_electric rail_fast ship" speed="13.89" length="7.88" shape="760.93,167.99 760.60,170.31 760.72,171.96 760.79,173.59 760.29,175.85"/>
    </edge>
    <edge id=":4748287536_0" function="internal">
        <lane id=":4748287536_0_0" index="0" disallow="tram rail_urban rail rail_electric rail_fast ship" speed="13.89" length="7.85" shape="758.70,268.59 758.14,270.79 757.35,272.18 756.51,273.56 755.75,275.73"/>
        <lane id=":4748287536_0_1" index="1" disallow="tram rail_urban rail rail_electric rail_fast ship" speed="13.89" length="7.85" shape="758.70,268.59 758.62,270.92 758.91,272.54 759.14,274.15 758.87,276.45"/>
    </edge>
    <edge id=":4748287559_0" function="internal">
        <lane id=":4748287559_0_0" index="0" disallow="tram rail_urban rail rail_electric rail_fast ship" speed="13.89" length="7.93" shape="822.42,573.47 824.51,572.65 826.08,572.47 827.67,572.34 829.82,571.65"/>
        <lane id=":4748287559_0_1" index="1" disallow="tram rail_urban rail rail_electric rail_fast ship" speed="13.89" length="7.93" shape="822.42,573.47 824.32,572.19 825.43,571.01 826.56,569.87 828.53,568.73"/>
        <lane id=":4748287559_0_2" index="2" disallow="tram rail_urban rail rail_electric rail_fast ship" speed="13.89" length="7.93" shape="820.92,570.65 822.88,569.33 824.03,568.13 825.21,566.97 827.23,565.80"/>
        <lane id=":4748287559_0_3" index="3" disallow="tram rail_urban rail rail_electric rail_fast ship" speed="13.89" length="7.93" shape="819.42,567.82 821.44,566.47 822.63,565.25 823.85,564.08 825.94,562.87"/>
    </edge>
    <edge id=":4748287566_0" function="internal">
        <lane id=":4748287566_0_0" index="0" disallow="tram rail_urban rail rail_electric rail_fast ship" speed="13.89" length="14.56" shape="745.64,317.72 743.56,321.44 741.46,323.62 739.37,325.80 737.30,329.52"/>
        <lane id=":4748287566_0_1" index="1" disallow="tram rail_urban rail rail_electric rail_fast ship" speed="13.89" length="14.56" shape="748.59,318.94 746.52,322.66 744.42,324.83 742.33,327.01 740.26,330.73"/>
    </edge>
    <edge id=":4748287566_2" function="internal">
        <lane id=":4748287566_2_0" index="0" disallow="tram rail_urban rail rail_electric rail_fast ship" speed="13.89" length="13.70" shape="751.76,320.88 748.60,323.67 746.53,325.74 744.94,328.15 743.22,331.95"/>
        <lane id=":4748287566_2_1" index="1" disallow="tram rail_urban rail rail_electric rail_fast ship" speed="13.89" length="13.70" shape="754.23,322.97 751.28,325.54 749.32,327.44 747.80,329.64 746.18,333.16"/>
    </edge>
    <edge id=":4748287568_0" function="internal">
        <lane id=":4748287568_0_0" index="0" disallow="tram rail_urban rail rail_electric rail_fast ship" speed="13.89" length="7.97" shape="713.73,397.27 712.71,399.28 711.65,400.46 710.53,401.62 709.35,403.57"/>
        <lane id=":4748287568_0_1" index="1" disallow="tram rail_urban rail rail_electric rail_fast ship" speed="13.89" length="7.97" shape="716.73,398.39 715.68,400.47 714.60,401.70 713.46,402.90 712.26,404.92"/>
        <lane id=":4748287568_0_2" index="2" disallow="tram rail_urban rail rail_electric rail_fast ship" speed="13.89" length="7.97" shape="719.72,399.51 718.65,401.66 717.55,402.93 716.40,404.19 715.16,406.27"/>
    </edge>
    <edge id=":4748287569_0" function="internal">
        <lane id=":4748287569_0_0" index="0" allow="private emergency authority army vip passenger hov taxi bus coach delivery truck trailer motorcycle evehicle custom1 custom2" speed="9.44" length="12.22" shape="692.66,438.87 691.00,440.89 688.65,442.32 685.63,443.18 681.93,443.45"/>
        <lane id=":4748287569_0_1" index="1" allow="private emergency authority army vip passenger hov taxi bus coach delivery truck trailer motorcycle evehicle custom1 custom2" speed="10.12" length="14.15" shape="695.44,440.46 693.35,443.19 690.66,445.13 687.37,446.28 683.48,446.66"/>
    </edge>
    <edge id=":4748287569_2" function="internal">
        <lane id=":4748287569_2_0" index="0" disallow="tram rail_urban rail rail_electric rail_fast ship" speed="13.89" length="13.59" shape="695.44,440.46 693.26,443.76 691.35,445.70 689.12,447.40 686.03,449.96"/>
        <lane id=":4748287569_2_1" index="1" disallow="tram rail_urban rail rail_electric rail_fast ship" speed="13.89" length="13.59" shape="698.21,442.05 696.02,445.42 694.11,447.42 691.89,449.18 688.77,451.80"/>
    </edge>
    <edge id=":4748287593_0" function="internal">
        <lane id=":4748287593_0_0" index="0" allow="private emergency authority army vip passenger hov taxi bus coach delivery truck trailer motorcycle evehicle custom1 custom2" speed="11.11" length="7.90" shape="698.73,360.95 700.14,359.10 701.40,358.05 702.61,356.96 703.88,355.04"/>
    </edge>
    <edge id=":4965221267_0" function="internal">
        <lane id=":4965221267_0_0" index="0" disallow="tram rail_urban rail rail_electric rail_fast ship" speed="13.89" length="8.17" shape="823.03,434.13 822.35,431.82 822.25,430.14 822.13,428.46 821.42,426.17"/>
    </edge>
    <edge id=":4965282245_0" function="internal">
        <lane id=":4965282245_0_0" index="0" disallow="tram rail_urban rail rail_electric rail_fast ship" speed="13.89" length="8.19" shape="781.40,333.41 780.74,331.08 780.70,329.34 780.56,327.65 779.61,325.47"/>
        <lane id=":4965282245_0_1" index="1" disallow="tram rail_urban rail rail_electric rail_fast ship" speed="13.89" length="8.19" shape="781.40,333.41 780.29,331.29 779.24,330.01 778.10,328.78 776.69,326.82"/>
    </edge>
    <edge id=":4965282252_0" function="internal">
        <lane id=":4965282252_0_0" index="0" disallow="tram rail_urban rail rail_electric rail_fast ship" speed="13.89" length="7.66" shape="792.57,588.39 794.46,587.37 795.94,587.05 797.45,586.79 799.46,585.95"/>
        <lane id=":4965282252_0_1" index="1" disallow="tram rail_urban rail rail_electric rail_fast ship" speed="13.89" length="7.66" shape="790.72,585.78 792.69,584.70 794.23,584.34 795.81,584.04 797.91,583.15"/>
        <lane id=":4965282252_0_2" index="2" disallow="tram rail_urban rail rail_electric rail_fast ship" speed="13.89" length="7.66" shape="790.72,585.78 792.47,584.25 793.45,582.93 794.48,581.69 796.36,580.36"/>
    </edge>
    <edge id=":4965282273_0" function="internal">
        <lane id=":4965282273_0_0" index="0" disallow="tram rail_urban rail rail_electric rail_fast ship" speed="13.89" length="7.86" shape="777.35,282.98 776.66,280.74 776.52,279.10 776.33,277.49 775.47,275.33"/>
        <lane id=":4965282273_0_1" index="1" disallow="tram rail_urban rail rail_electric rail_fast ship" speed="13.89" length="7.86" shape="777.35,282.98 776.23,281.00 775.11,279.85 773.93,278.73 772.65,276.83"/>
    </edge>
    <edge id=":5150273434_0" function="internal">
        <lane id=":5150273434_0_0" index="0" disallow="tram rail_urban rail rail_electric rail_fast ship" speed="13.89" length="0.25" shape="737.84,613.89 737.74,613.66"/>
    </edge>
    <edge id=":5150273440_0" function="internal">
        <lane id=":5150273440_0_0" index="0" disallow="tram rail_urban rail rail_electric rail_fast ship" speed="13.89" length="8.09" shape="853.57,557.64 855.87,556.90 857.56,556.73 859.24,556.53 861.50,555.70"/>
        <lane id=":5150273440_0_1" index="1" disallow="tram rail_urban rail rail_electric rail_fast ship" speed="13.89" length="8.09" shape="852.27,554.72 854.54,553.99 856.21,553.83 857.86,553.65 860.09,552.83"/>
        <lane id=":5150273440_0_2" index="2" disallow="tram rail_urban rail rail_electric rail_fast ship" speed="13.89" length="8.09" shape="850.98,551.79 853.21,551.08 854.85,550.93 856.48,550.76 858.68,549.96"/>
    </edge>
    <edge id=":5150273454_0" function="internal">
        <lane id=":5150273454_0_0" index="0" disallow="tram rail_urban rail rail_electric rail_fast ship" speed="13.89" length="6.76" shape="684.49,539.70 684.95,541.62 684.84,543.06 684.75,544.48 685.27,546.38"/>
        <lane id=":5150273454_0_1" index="1" disallow="tram rail_urban rail rail_electric rail_fast ship" speed="13.89" length="6.76" shape="687.45,538.49 687.90,540.39 687.78,541.80 687.68,543.20 688.19,545.07"/>
    </edge>
    <edge id=":5150273454_2" function="internal">
        <lane id=":5150273454_2_0" index="0" disallow="tram rail_urban rail rail_electric rail_fast ship" speed="6.90" length="6.21" shape="692.07,537.92 691.18,539.42 690.72,540.90 690.70,542.34 691.11,543.75"/>
    </edge>
    <edge id=":5150288906_0" function="internal">
        <lane id=":5150288906_0_0" index="0" disallow="tram rail_urban rail rail_electric rail_fast ship" speed="13.89" length="7.71" shape="756.01,190.33 755.26,192.47 754.41,193.84 753.63,195.22 753.08,197.40"/>
    </edge>
    <edge id=":5150311497_0" function="internal">
        <lane id=":5150311497_0_0" index="0" allow="private emergency authority army vip passenger hov taxi bus coach delivery truck trailer motorcycle evehicle custom1 custom2" speed="25.00" length="8.14" shape="471.33,135.58 470.04,133.55 468.82,132.37 467.58,131.19 466.22,129.19"/>
        <lane id=":5150311497_0_1" index="1" allow="private emergency authority army vip passenger hov taxi bus coach delivery truck trailer motorcycle evehicle custom1 custom2" speed="25.00" length="8.14" shape="468.47,137.01 467.19,135.00 465.98,133.83 464.75,132.68 463.40,130.70"/>
        <lane id=":5150311497_0_2" index="2" allow="private emergency authority army vip passenger hov taxi bus coach delivery truck trailer motorcycle evehicle custom1 custom2" speed="25.00" length="8.14" shape="465.60,138.43 464.33,136.45 463.13,135.30 461.92,134.17 460.59,132.22"/>
    </edge>
    <edge id=":5967016829_0" function="internal">
        <lane id=":5967016829_0_0" index="0" allow="private emergency authority army vip passenger hov taxi bus coach delivery truck trailer motorcycle evehicle custom1 custom2" speed="13.89" length="0.29" shape="198.13,410.34 198.43,410.21"/>
        <lane id=":5967016829_0_1" index="1" allow="private emergency authority army vip passenger hov taxi bus coach delivery truck trailer motorcycle evehicle custom1 custom2" speed="13.89" length="0.29" shape="196.94,407.36 197.22,407.25"/>
        <lane id=":5967016829_0_2" index="2" allow="private emergency authority army vip passenger hov taxi bus coach delivery truck trailer motorcycle evehicle custom1 custom2" speed="13.89" length="0.29" shape="195.76,404.39 196.00,404.30"/>
    </edge>
    <edge id=":6076049012_0" function="internal">
        <lane id=":6076049012_0_0" index="0" allow="private emergency authority army vip passenger hov taxi bus coach delivery truck trailer motorcycle evehicle custom1 custom2" speed="11.11" length="8.21" shape="689.56,613.58 688.89,611.27 688.80,609.58 688.71,607.89 688.05,605.57"/>
        <lane id=":6076049012_0_1" index="1" allow="private emergency authority army vip passenger hov taxi bus coach delivery truck trailer motorcycle evehicle custom1 custom2" speed="11.11" length="8.21" shape="686.60,614.79 685.92,612.48 685.83,610.78 685.74,609.09 685.08,606.76"/>
    </edge>
    <edge id=":6143048838_0" function="internal">
        <lane id=":6143048838_0_0" index="0" disallow="tram rail_urban rail rail_electric rail_fast ship" speed="13.89" length="8.19" shape="857.16,513.72 856.52,511.40 856.44,509.70 856.36,508.01 855.68,505.70"/>
        <lane id=":6143048838_0_1" index="1" disallow="tram rail_urban rail rail_electric rail_fast ship" speed="13.89" length="8.19" shape="854.18,514.89 853.55,512.57 853.47,510.89 853.39,509.21 852.72,506.91"/>
    </edge>
    <edge id=":6545243879_0" function="internal">
        <lane id=":6545243879_0_0" index="0" allow="private emergency authority army vip passenger hov taxi bus coach delivery truck trailer motorcycle evehicle custom1 custom2" speed="13.89" length="0.30" shape="268.24,390.03 268.51,389.92"/>
        <lane id=":6545243879_0_1" index="1" allow="private emergency authority army vip passenger hov taxi bus coach delivery truck trailer motorcycle evehicle custom1 custom2" speed="13.89" length="0.30" shape="267.04,387.06 267.33,386.95"/>
    </edge>
    <edge id=":6737799775_0" function="internal">
        <lane id=":6737799775_0_0" index="0" allow="private emergency authority army vip passenger hov taxi bus coach delivery truck trailer motorcycle evehicle custom1 custom2" speed="25.00" length="8.12" shape="489.92,218.13 490.76,220.32 490.96,221.97 491.12,223.63 491.86,225.88"/>
        <lane id=":6737799775_0_1" index="1" allow="private emergency authority army vip passenger hov taxi bus coach delivery truck trailer motorcycle evehicle custom1 custom2" speed="25.00" length="8.12" shape="492.77,216.67 493.63,218.91 493.84,220.58 494.02,222.27 494.78,224.57"/>
    </edge>
    <edge id=":7281822519_0" function="internal">
        <lane id=":7281822519_0_0" index="0" allow="private emergency authority army vip passenger hov taxi bus coach delivery truck trailer motorcycle evehicle custom1 custom2" speed="25.00" length="0.30" shape="654.62,548.85 654.49,548.57"/>
        <lane id=":7281822519_0_1" index="1" allow="private emergency authority army vip passenger hov taxi bus coach delivery truck trailer motorcycle evehicle custom1 custom2" speed="25.00" length="0.30" shape="651.68,550.12 651.57,549.86"/>
    </edge>

    <edge id="15775495" from="5967016829" to="158103325" priority="9" type="highway.motorway_link" spreadType="center" shape="197.08,407.31 261.14,380.93 335.40,349.81 354.70,342.23 369.17,338.51 385.64,334.99 405.23,333.26 425.13,334.07 444.14,337.03 459.19,340.59 476.50,346.62 492.53,353.53 507.00,361.46 520.38,370.82 534.63,382.44 545.39,394.29 561.00,412.28 573.08,430.95 584.54,455.50 618.96,534.81">
        <lane id="15775495_0" index="0" allow="private emergency authority army vip passenger hov taxi bus coach delivery truck trailer motorcycle evehicle custom1 custom2" speed="13.89" length="537.49" shape="198.43,410.21 262.37,383.89 336.60,352.78 355.69,345.28 369.90,341.63 386.12,338.16 405.31,336.47 424.82,337.26 443.52,340.17 458.29,343.67 475.34,349.60 491.12,356.41 505.31,364.18 518.45,373.37 532.42,384.77 543.00,396.41 558.44,414.21 570.27,432.50 581.62,456.81 615.37,534.56">
            <param key="origId" value="15775495"/>
        </lane>
        <lane id="15775495_1" index="1" allow="private emergency authority army vip passenger hov taxi bus coach delivery truck trailer motorcycle evehicle custom1 custom2" speed="13.89" length="537.49" shape="197.22,407.25 261.14,380.93 335.40,349.81 354.70,342.23 369.17,338.51 385.64,334.99 405.23,333.26 425.13,334.07 444.14,337.03 459.19,340.59 476.50,346.62 492.53,353.53 507.00,361.46 520.38,370.82 534.63,382.44 545.39,394.29 561.00,412.28 573.08,430.95 584.54,455.50 618.33,533.36">
            <param key="origId" value="15775495"/>
        </lane>
        <lane id="15775495_2" index="2" allow="private emergency authority army vip passenger hov taxi bus coach delivery truck trailer motorcycle evehicle custom1 custom2" speed="13.89" length="537.49" shape="196.00,404.30 259.91,377.97 334.20,346.84 353.71,339.18 368.44,335.39 385.16,331.82 405.15,330.05 425.44,330.88 444.76,333.89 460.09,337.51 477.66,343.64 493.94,350.65 508.69,358.74 522.31,368.27 536.84,380.11 547.78,392.17 563.56,410.35 575.89,429.40 587.46,454.19 621.30,532.16">
            <param key="origId" value="15775495"/>
        </lane>
    </edge>
    <edge id="15775499" from="25455304" to="158103565" priority="9" type="highway.motorway_link" spreadType="center" shape="358.71,0.00 404.18,86.91 410.12,101.55 413.65,118.47 417.07,135.59 418.30,152.07 417.38,173.13 414.62,192.17 409.49,207.35 400.76,224.73 390.71,241.36 378.78,258.56 364.63,272.90 350.14,283.86 327.09,299.21 284.64,325.24 247.98,347.88 219.25,363.15 167.11,384.39">
        <lane id="15775499_0" index="0" allow="private emergency authority army vip passenger hov taxi bus coach delivery truck trailer motorcycle evehicle custom1 custom2" speed="13.89" length="471.13" shape="384.79,49.86 404.18,86.91 410.12,101.55 413.65,118.47 417.07,135.59 418.30,152.07 417.38,173.13 414.62,192.17 409.49,207.35 400.76,224.73 390.71,241.36 378.78,258.56 364.63,272.90 350.14,283.86 327.09,299.21 284.64,325.24 247.98,347.88 219.25,363.15 168.62,383.77">
            <param key="origId" value="15775499"/>
        </lane>
    </edge>
    <edge id="165370348" from="4748287569" to="5150273454" name="T4 Crescent" priority="11" type="highway.secondary" spreadType="center" shape="695.47,440.40 692.39,445.04 687.77,450.54 683.69,454.23 677.78,459.16 674.11,462.87 668.61,470.22 666.55,477.35 666.31,483.75 667.12,491.90 671.18,502.62 690.20,549.53">