<?xml version="1.0" encoding="UTF-8"?>

<!-- generated on 2023-07-14 11:53:41 by Eclipse SUMO netconvert Version 1.17.0
<configuration xmlns:xsi="http://www.w3.org/2001/XMLSchema-instance" xsi:noNamespaceSchemaLocation="http://sumo.dlr.de/xsd/netconvertConfiguration.xsd">

    <input>
        <sumo-net-file value="osm.net.xml.gz"/>
    </input>

    <output>
        <output-file value="osm.net.xml"/>
        <output.street-names value="true"/>
    </output>

    <processing>
        <geometry.min-radius.fix.railways value="false"/>
        <geometry.max-grade.fix value="false"/>
        <offset.disable-normalization value="true"/>
        <lefthand value="1"/>
    </processing>

    <junctions>
        <no-turnarounds value="true"/>
        <junctions.corner-detail value="5"/>
        <junctions.limit-turn-speed value="5.50"/>
        <rectangular-lane-cut value="0"/>
    </junctions>

    <pedestrian>
        <walkingareas value="0"/>
    </pedestrian>

</configuration>
-->

<net version="1.16" junctionCornerDetail="5" lefthand="true" limitTurnSpeed="5.50" xmlns:xsi="http://www.w3.org/2001/XMLSchema-instance" xsi:noNamespaceSchemaLocation="http://sumo.dlr.de/xsd/net_file.xsd">

    <location netOffset="-369017.74,-159969.15" convBoundary="0.00,0.00,548.01,311.90" origBoundary="103.822604,1.446983,103.827531,1.449802" projParameter="+proj=utm +zone=48 +ellps=WGS84 +datum=WGS84 +units=m +no_defs"/>

    <type id="highway.bridleway" priority="1" numLanes="1" speed="2.78" allow="pedestrian" oneway="1" width="2.00"/>
    <type id="highway.bus_guideway" priority="1" numLanes="1" speed="27.78" allow="bus" oneway="1"/>
    <type id="highway.cycleway" priority="1" numLanes="1" speed="5.56" allow="bicycle" oneway="0" width="1.00"/>
    <type id="highway.footway" priority="1" numLanes="1" speed="2.78" allow="pedestrian" oneway="1" width="2.00"/>
    <type id="highway.ford" priority="1" numLanes="1" speed="2.78" allow="army" oneway="0"/>
    <type id="highway.living_street" priority="2" numLanes="1" speed="2.78" disallow="tram rail_urban rail rail_electric rail_fast ship" oneway="0"/>
    <type id="highway.motorway" priority="14" numLanes="2" speed="39.44" allow="private emergency authority army vip passenger hov taxi bus coach delivery truck trailer motorcycle evehicle custom1 custom2" oneway="1"/>
    <type id="highway.motorway_link" priority="9" numLanes="1" speed="22.22" allow="private emergency authority army vip passenger hov taxi bus coach delivery truck trailer motorcycle evehicle custom1 custom2" oneway="1"/>
    <type id="highway.path" priority="1" numLanes="1" speed="5.56" allow="pedestrian bicycle" oneway="0" width="2.00"/>
    <type id="highway.pedestrian" priority="1" numLanes="1" speed="2.78" allow="pedestrian" oneway="1" width="2.00"/>
    <type id="highway.primary" priority="12" numLanes="2" speed="27.78" disallow="tram rail_urban rail rail_electric rail_fast ship" oneway="0"/>
    <type id="highway.primary_link" priority="7" numLanes="1" speed="22.22" disallow="tram rail_urban rail rail_electric rail_fast ship" oneway="0"/>
    <type id="highway.raceway" priority="15" numLanes="2" speed="83.33" allow="vip" oneway="0"/>
    <type id="highway.residential" priority="3" numLanes="1" speed="13.89" disallow="tram rail_urban rail rail_electric rail_fast ship" oneway="0"/>
    <type id="highway.secondary" priority="11" numLanes="1" speed="27.78" disallow="tram rail_urban rail rail_electric rail_fast ship" oneway="0"/>
    <type id="highway.secondary_link" priority="6" numLanes="1" speed="22.22" disallow="tram rail_urban rail rail_electric rail_fast ship" oneway="0"/>
    <type id="highway.service" priority="1" numLanes="1" speed="5.56" allow="pedestrian delivery bicycle" oneway="0"/>
    <type id="highway.stairs" priority="1" numLanes="1" speed="1.39" allow="pedestrian" oneway="1" width="2.00"/>
    <type id="highway.step" priority="1" numLanes="1" speed="1.39" allow="pedestrian" oneway="1" width="2.00"/>
    <type id="highway.steps" priority="1" numLanes="1" speed="1.39" allow="pedestrian" oneway="1" width="2.00"/>
    <type id="highway.tertiary" priority="10" numLanes="1" speed="22.22" disallow="tram rail_urban rail rail_electric rail_fast ship" oneway="0"/>
    <type id="highway.tertiary_link" priority="5" numLanes="1" speed="22.22" disallow="tram rail_urban rail rail_electric rail_fast ship" oneway="0"/>
    <type id="highway.track" priority="1" numLanes="1" speed="5.56" allow="pedestrian motorcycle moped bicycle" oneway="0"/>
    <type id="highway.trunk" priority="13" numLanes="2" speed="27.78" disallow="pedestrian bicycle tram rail_urban rail rail_electric rail_fast ship" oneway="0"/>
    <type id="highway.trunk_link" priority="8" numLanes="1" speed="22.22" disallow="pedestrian bicycle tram rail_urban rail rail_electric rail_fast ship" oneway="0"/>
    <type id="highway.unclassified" priority="4" numLanes="1" speed="13.89" disallow="tram rail_urban rail rail_electric rail_fast ship" oneway="0"/>
    <type id="highway.unsurfaced" priority="1" numLanes="1" speed="8.33" disallow="tram rail_urban rail rail_electric rail_fast ship" oneway="0"/>
    <type id="railway.highspeed" priority="21" numLanes="1" speed="69.44" allow="rail_fast" oneway="1"/>
    <type id="railway.light_rail" priority="19" numLanes="1" speed="27.78" allow="rail_urban" oneway="1"/>
    <type id="railway.preserved" priority="16" numLanes="1" speed="27.78" allow="rail" oneway="1"/>
    <type id="railway.rail" priority="20" numLanes="1" speed="44.44" allow="rail" oneway="1"/>
    <type id="railway.subway" priority="18" numLanes="1" speed="27.78" allow="rail_urban" oneway="1"/>
    <type id="railway.tram" priority="17" numLanes="1" speed="13.89" allow="tram" oneway="1"/>

    <edge id=":1863993220_0" function="internal">
        <lane id=":1863993220_0_0" index="0" disallow="tram rail_urban rail rail_electric rail_fast ship" speed="19.44" length="8.13" shape="504.07,28.45 502.31,30.00 500.85,30.77 499.37,31.51 497.56,33.01"/>
        <lane id=":1863993220_0_1" index="1" disallow="tram rail_urban rail rail_electric rail_fast ship" speed="19.44" length="8.13" shape="504.07,28.45 502.67,30.36 501.99,31.89 501.30,33.40 499.84,35.25"/>
        <lane id=":1863993220_0_2" index="2" disallow="tram rail_urban rail rail_electric rail_fast ship" speed="19.44" length="8.13" shape="506.43,30.61 505.01,32.54 504.32,34.09 503.61,35.62 502.12,37.49"/>
        <lane id=":1863993220_0_3" index="3" disallow="tram rail_urban rail rail_electric rail_fast ship" speed="19.44" length="8.13" shape="508.80,32.77 507.35,34.73 506.64,36.29 505.92,37.83 504.41,39.73"/>
    </edge>
    <edge id=":244963663_0" function="internal">
        <lane id=":244963663_0_0" index="0" disallow="tram rail_urban rail rail_electric rail_fast ship" speed="16.67" length="7.58" shape="383.49,56.30 384.34,58.21 384.54,59.68 384.67,61.18 385.33,63.20"/>
        <lane id=":244963663_0_1" index="1" disallow="tram rail_urban rail rail_electric rail_fast ship" speed="16.67" length="7.58" shape="383.49,56.30 384.81,58.02 385.99,59.01 387.11,60.03 388.23,61.86"/>
        <lane id=":244963663_0_2" index="2" disallow="tram rail_urban rail rail_electric rail_fast ship" speed="16.67" length="7.58" shape="386.24,54.65 387.61,56.47 388.83,57.52 389.98,58.60 391.14,60.53"/>
        <lane id=":244963663_0_3" index="3" disallow="tram rail_urban rail rail_electric rail_fast ship" speed="16.67" length="7.58" shape="388.98,53.01 390.40,54.91 391.66,56.02 392.84,57.17 394.05,59.19"/>
    </edge>
    <edge id=":4602398747_0" function="internal">
        <lane id=":4602398747_0_0" index="0" disallow="tram rail_urban rail rail_electric rail_fast ship" speed="12.43" length="10.13" shape="404.23,118.92 403.74,121.92 403.49,124.11 402.76,126.00 400.80,128.10"/>
    </edge>
    <edge id=":4602398747_1" function="internal">
        <lane id=":4602398747_1_0" index="0" disallow="tram rail_urban rail rail_electric rail_fast ship" speed="16.67" length="6.84" shape="405.34,123.20 404.03,124.69 403.18,125.75 402.27,126.77 400.80,128.10"/>
        <lane id=":4602398747_1_1" index="1" disallow="tram rail_urban rail rail_electric rail_fast ship" speed="16.67" length="6.84" shape="407.63,125.44 406.25,127.00 405.36,128.10 404.40,129.15 402.87,130.54"/>
    </edge>
    <edge id=":4602398750_0" function="internal">
        <lane id=":4602398750_0_0" index="0" disallow="tram rail_urban rail rail_electric rail_fast ship" speed="12.82" length="7.56" shape="405.08,106.16 405.82,108.21 405.93,109.73 405.69,111.30 405.37,113.54"/>
    </edge>
    <edge id=":4602398750_1" function="internal">
        <lane id=":4602398750_1_0" index="0" disallow="tram rail_urban rail rail_electric rail_fast ship" speed="16.67" length="2.78" shape="407.99,104.82 406.98,107.34"/>
        <lane id=":4602398750_1_1" index="1" disallow="tram rail_urban rail rail_electric rail_fast ship" speed="16.67" length="2.78" shape="410.89,103.48 409.93,106.09"/>
        <lane id=":4602398750_1_2" index="2" disallow="tram rail_urban rail rail_electric rail_fast ship" speed="16.67" length="2.78" shape="413.80,102.15 412.87,104.83"/>
    </edge>
    <edge id=":4602398751_0" function="internal">
        <lane id=":4602398751_0_0" index="0" disallow="tram rail_urban rail rail_electric rail_fast ship" speed="15.28" length="13.92" shape="425.40,164.91 428.25,166.75 430.69,168.53 432.83,170.96 434.78,174.76"/>
    </edge>
    <edge id=":4602398751_1" function="internal">
        <lane id=":4602398751_1_0" index="0" disallow="tram rail_urban rail rail_electric rail_fast ship" speed="16.67" length="14.04" shape="429.78,161.60 434.78,174.76"/>
        <lane id=":4602398751_1_1" index="1" disallow="tram rail_urban rail rail_electric rail_fast ship" speed="16.67" length="14.04" shape="432.78,160.48 437.75,173.57"/>
    </edge>
    <edge id=":4602398754_0" function="internal">
        <lane id=":4602398754_0_0" index="0" disallow="tram rail_urban rail rail_electric rail_fast ship" speed="7.26" length="4.97" shape="393.83,157.64 394.83,156.97 395.94,156.55 397.16,156.37 398.50,156.44"/>
    </edge>
    <edge id=":4602398754_1" function="internal">
        <lane id=":4602398754_1_0" index="0" disallow="tram rail_urban rail rail_electric rail_fast ship" speed="16.67" length="6.04" shape="391.78,155.18 393.30,154.18 394.52,153.76 395.72,153.31 397.18,152.25"/>
        <lane id=":4602398754_1_1" index="1" disallow="tram rail_urban rail rail_electric rail_fast ship" speed="16.67" length="6.04" shape="389.73,152.72 391.22,151.75 392.41,151.35 393.59,150.92 395.02,149.90"/>
        <lane id=":4602398754_1_2" index="2" disallow="tram rail_urban rail rail_electric rail_fast ship" speed="16.67" length="6.04" shape="387.69,150.26 389.14,149.32 390.30,148.94 391.45,148.54 392.85,147.54"/>
    </edge>
    <edge id=":4602398755_0" function="internal">
        <lane id=":4602398755_0_0" index="0" disallow="tram rail_urban rail rail_electric rail_fast ship" speed="15.28" length="12.32" shape="417.23,53.08 414.41,51.52 412.17,50.17 410.14,48.32 407.94,45.30"/>
    </edge>
    <edge id=":4602398755_1" function="internal">
        <lane id=":4602398755_1_0" index="0" disallow="tram rail_urban rail rail_electric rail_fast ship" speed="16.67" length="12.32" shape="413.06,56.75 411.69,53.27 410.83,50.85 409.80,48.52 407.94,45.30"/>
        <lane id=":4602398755_1_1" index="1" disallow="tram rail_urban rail rail_electric rail_fast ship" speed="16.67" length="12.32" shape="410.11,58.00 408.81,54.66 407.99,52.33 407.01,50.09 405.23,47.00"/>
    </edge>
    <edge id=":4602398758_0" function="internal">
        <lane id=":4602398758_0_0" index="0" disallow="tram rail_urban rail rail_electric rail_fast ship" speed="11.16" length="7.94" shape="469.82,61.26 468.08,62.71 466.58,63.27 464.89,63.44 462.52,63.71"/>
    </edge>
    <edge id=":4602398758_1" function="internal">
        <lane id=":4602398758_1_0" index="0" disallow="tram rail_urban rail rail_electric rail_fast ship" speed="19.44" length="9.29" shape="472.10,63.50 470.03,65.02 468.24,65.50 466.37,65.91 464.11,67.22"/>
        <lane id=":4602398758_1_1" index="1" disallow="tram rail_urban rail rail_electric rail_fast ship" speed="19.44" length="9.29" shape="474.39,65.75 472.24,67.34 470.39,67.87 468.47,68.33 466.13,69.71"/>
        <lane id=":4602398758_1_2" index="2" disallow="tram rail_urban rail rail_electric rail_fast ship" speed="19.44" length="9.29" shape="476.67,67.99 474.45,69.66 472.54,70.24 470.56,70.75 468.14,72.19"/>
    </edge>
    <edge id=":4602398759_0" function="internal">
        <lane id=":4602398759_0_0" index="0" disallow="tram rail_urban rail rail_electric rail_fast ship" speed="16.66" length="14.91" shape="459.17,102.68 460.74,99.64 462.22,96.83 464.23,93.86 467.40,90.35"/>
    </edge>
    <edge id=":4602398759_1" function="internal">
        <lane id=":4602398759_1_0" index="0" disallow="tram rail_urban rail rail_electric rail_fast ship" speed="19.44" length="14.85" shape="455.64,99.78 467.40,90.35"/>
        <lane id=":4602398759_1_1" index="1" disallow="tram rail_urban rail rail_electric rail_fast ship" speed="19.44" length="14.85" shape="453.56,97.35 465.16,88.07"/>
        <lane id=":4602398759_1_2" index="2" disallow="tram rail_urban rail rail_electric rail_fast ship" speed="19.44" length="14.85" shape="451.48,94.91 462.92,85.79"/>
    </edge>
    <edge id=":4602398762_0" function="internal">
        <lane id=":4602398762_0_0" index="0" disallow="tram rail_urban rail rail_electric rail_fast ship" speed="15.28" length="7.80" shape="453.35,149.22 452.63,147.05 452.44,145.48 452.49,143.86 452.52,141.54"/>
    </edge>
    <edge id=":4602398762_1" function="internal">
        <lane id=":4602398762_1_0" index="0" disallow="tram rail_urban rail rail_electric rail_fast ship" speed="16.67" length="8.32" shape="450.38,150.41 449.72,148.06 449.65,146.35 449.58,144.63 448.92,142.28"/>
        <lane id=":4602398762_1_1" index="1" disallow="tram rail_urban rail rail_electric rail_fast ship" speed="16.67" length="8.32" shape="447.41,151.60 446.75,149.25 446.68,147.53 446.60,145.81 445.95,143.46"/>
        <lane id=":4602398762_1_2" index="2" disallow="tram rail_urban rail rail_electric rail_fast ship" speed="16.67" length="8.32" shape="444.44,152.79 443.78,150.43 443.70,148.72 443.63,147.00 442.97,144.64"/>
    </edge>
    <edge id=":4723055629_0" function="internal">
        <lane id=":4723055629_0_0" index="0" disallow="tram rail_urban rail rail_electric rail_fast ship" speed="16.67" length="8.21" shape="460.87,172.39 460.23,170.05 460.15,168.35 460.07,166.65 459.41,164.32"/>
        <lane id=":4723055629_0_1" index="1" disallow="tram rail_urban rail rail_electric rail_fast ship" speed="16.67" length="8.21" shape="460.87,172.39 459.77,170.24 458.67,168.95 457.56,167.65 456.44,165.51"/>
        <lane id=":4723055629_0_2" index="2" disallow="tram rail_urban rail rail_electric rail_fast ship" speed="16.67" length="8.21" shape="457.89,173.55 456.79,171.41 455.69,170.12 454.59,168.83 453.47,166.70"/>
        <lane id=":4723055629_0_3" index="3" disallow="tram rail_urban rail rail_electric rail_fast ship" speed="16.67" length="8.21" shape="454.90,174.70 453.81,172.57 452.72,171.29 451.62,170.02 450.50,167.90"/>
    </edge>
    <edge id=":6728829044_0" function="internal">
        <lane id=":6728829044_0_0" index="0" disallow="tram rail_urban rail rail_electric rail_fast ship" speed="16.67" length="8.21" shape="466.38,190.89 465.73,188.58 465.65,186.89 465.58,185.20 464.95,182.89"/>
        <lane id=":6728829044_0_1" index="1" disallow="tram rail_urban rail rail_electric rail_fast ship" speed="16.67" length="8.21" shape="463.41,192.08 462.75,189.76 462.67,188.07 462.60,186.37 461.96,184.04"/>
        <lane id=":6728829044_0_2" index="2" disallow="tram rail_urban rail rail_electric rail_fast ship" speed="16.67" length="8.21" shape="463.41,192.08 462.29,189.94 461.18,188.64 460.08,187.35 458.98,185.20"/>
    </edge>
    <edge id=":cluster_244930621_244930624_244930732_244930738_0" function="internal">
        <lane id=":cluster_244930621_244930624_244930732_244930738_0_0" index="0" disallow="tram rail_urban rail rail_electric rail_fast ship" speed="18.05" length="41.93" shape="434.76,92.84 405.48,123.05"/>
        <lane id=":cluster_244930621_244930624_244930732_244930738_0_1" index="1" disallow="tram rail_urban rail rail_electric rail_fast ship" speed="18.05" length="41.93" shape="436.84,95.27 407.76,125.29"/>
    </edge>
    <edge id=":cluster_244930621_244930624_244930732_244930738_2" function="internal">
        <lane id=":cluster_244930621_244930624_244930732_244930738_2_0" index="0" disallow="tram rail_urban rail rail_electric rail_fast ship" speed="16.46" length="44.89" shape="438.92,97.71 429.69,107.79 424.13,117.74 422.24,127.55 424.02,137.22"/>
    </edge>
    <edge id=":cluster_244930621_244930624_244930732_244930738_3" function="internal">
        <lane id=":cluster_244930621_244930624_244930732_244930738_3_0" index="0" disallow="tram rail_urban rail rail_electric rail_fast ship" speed="4.63" length="8.81" shape="438.92,97.71 438.18,100.32 438.59,101.96 440.14,102.61 442.84,102.29"/>
    </edge>
    <edge id=":cluster_244930621_244930624_244930732_244930738_4" function="internal">
        <lane id=":cluster_244930621_244930624_244930732_244930738_4_0" index="0" disallow="tram rail_urban rail rail_electric rail_fast ship" speed="16.67" length="41.57" shape="443.94,129.73 427.75,91.32"/>
        <lane id=":cluster_244930621_244930624_244930732_244930738_4_1" index="1" disallow="tram rail_urban rail rail_electric rail_fast ship" speed="16.67" length="41.57" shape="440.94,130.86 424.84,92.66"/>
    </edge>
    <edge id=":cluster_244930621_244930624_244930732_244930738_6" function="internal">
        <lane id=":cluster_244930621_244930624_244930732_244930738_6_0" index="0" disallow="tram rail_urban rail rail_electric rail_fast ship" speed="11.27" length="25.91" shape="437.95,131.99 432.21,122.44 424.88,117.95 418.73,118.58"/>
    </edge>
    <edge id=":cluster_244930621_244930624_244930732_244930738_7" function="internal">
        <lane id=":cluster_244930621_244930624_244930732_244930738_7_0" index="0" disallow="tram rail_urban rail rail_electric rail_fast ship" speed="6.79" length="18.41" shape="437.95,131.99 432.50,128.07 428.37,127.64 425.54,130.69 424.77,134.00"/>
    </edge>
    <edge id=":cluster_244930621_244930624_244930732_244930738_18" function="internal">
        <lane id=":cluster_244930621_244930624_244930732_244930738_18_0" index="0" disallow="tram rail_urban rail rail_electric rail_fast ship" speed="11.27" length="13.12" shape="418.73,118.58 416.54,118.80 407.76,125.29"/>
    </edge>
    <edge id=":cluster_244930621_244930624_244930732_244930738_19" function="internal">
        <lane id=":cluster_244930621_244930624_244930732_244930738_19_0" index="0" disallow="tram rail_urban rail rail_electric rail_fast ship" speed="6.79" length="3.31" shape="424.77,134.00 424.02,137.22"/>
    </edge>
    <edge id=":cluster_244930621_244930624_244930732_244930738_8" function="internal">
        <lane id=":cluster_244930621_244930624_244930732_244930738_8_0" index="0" disallow="tram rail_urban rail rail_electric rail_fast ship" speed="18.05" length="44.46" shape="414.06,136.72 447.00,107.15"/>
        <lane id=":cluster_244930621_244930624_244930732_244930738_8_1" index="1" disallow="tram rail_urban rail rail_electric rail_fast ship" speed="18.05" length="44.46" shape="411.84,134.43 444.92,104.72"/>
        <lane id=":cluster_244930621_244930624_244930732_244930738_8_2" index="2" disallow="tram rail_urban rail rail_electric rail_fast ship" speed="18.05" length="44.46" shape="409.61,132.13 442.84,102.29"/>
    </edge>
    <edge id=":cluster_244930621_244930624_244930732_244930738_11" function="internal">
        <lane id=":cluster_244930621_244930624_244930732_244930738_11_0" index="0" disallow="tram rail_urban rail rail_electric rail_fast ship" speed="16.15" length="26.12" shape="409.61,132.13 419.19,121.72 424.92,111.68 425.00,111.27"/>
    </edge>
    <edge id=":cluster_244930621_244930624_244930732_244930738_12" function="internal">
        <lane id=":cluster_244930621_244930624_244930732_244930738_12_0" index="0" disallow="tram rail_urban rail rail_electric rail_fast ship" speed="4.97" length="9.99" shape="409.61,132.13 411.71,129.73 412.10,127.79 410.79,126.31 408.09,125.40"/>
    </edge>
    <edge id=":cluster_244930621_244930624_244930732_244930738_20" function="internal">
        <lane id=":cluster_244930621_244930624_244930732_244930738_20_0" index="0" disallow="tram rail_urban rail rail_electric rail_fast ship" speed="16.15" length="18.99" shape="425.00,111.27 426.81,101.99 424.84,92.66"/>
    </edge>
    <edge id=":cluster_244930621_244930624_244930732_244930738_21" function="internal">
        <lane id=":cluster_244930621_244930624_244930732_244930738_21_0" index="0" disallow="tram rail_urban rail rail_electric rail_fast ship" speed="4.97" length="0.35" shape="408.09,125.40 407.76,125.29"/>
    </edge>
    <edge id=":cluster_244930621_244930624_244930732_244930738_13" function="internal">
        <lane id=":cluster_244930621_244930624_244930732_244930738_13_0" index="0" disallow="tram rail_urban rail rail_electric rail_fast ship" speed="16.67" length="33.91" shape="407.05,107.53 421.03,138.35"/>
        <lane id=":cluster_244930621_244930624_244930732_244930738_13_1" index="1" disallow="tram rail_urban rail rail_electric rail_fast ship" speed="16.67" length="33.91" shape="410.00,106.27 424.02,137.22"/>
    </edge>
    <edge id=":cluster_244930621_244930624_244930732_244930738_15" function="internal">
        <lane id=":cluster_244930621_244930624_244930732_244930738_15_0" index="0" disallow="tram rail_urban rail rail_electric rail_fast ship" speed="11.69" length="22.78" shape="412.94,105.02 418.67,113.61 426.20,115.43 430.58,113.73"/>
        <lane id=":cluster_244930621_244930624_244930732_244930738_15_1" index="1" disallow="tram rail_urban rail rail_electric rail_fast ship" speed="11.25" length="20.73" shape="412.94,105.02 418.10,112.18 425.15,113.11 429.52,111.14"/>
    </edge>
    <edge id=":cluster_244930621_244930624_244930732_244930738_17" function="internal">
        <lane id=":cluster_244930621_244930624_244930732_244930738_17_0" index="0" disallow="tram rail_urban rail rail_electric rail_fast ship" speed="7.28" length="17.32" shape="412.94,105.02 420.55,106.39 425.07,104.79 426.50,100.21"/>
    </edge>
    <edge id=":cluster_244930621_244930624_244930732_244930738_22" function="internal">
        <lane id=":cluster_244930621_244930624_244930732_244930738_22_0" index="0" disallow="tram rail_urban rail rail_electric rail_fast ship" speed="11.69" length="17.06" shape="430.58,113.73 435.10,111.97 444.92,104.72"/>
    </edge>
    <edge id=":cluster_244930621_244930624_244930732_244930738_23" function="internal">
        <lane id=":cluster_244930621_244930624_244930732_244930738_23_0" index="0" disallow="tram rail_urban rail rail_electric rail_fast ship" speed="11.25" length="16.07" shape="429.52,111.14 433.57,109.30 442.84,102.29"/>
    </edge>
    <edge id=":cluster_244930621_244930624_244930732_244930738_24" function="internal">
        <lane id=":cluster_244930621_244930624_244930732_244930738_24_0" index="0" disallow="tram rail_urban rail rail_electric rail_fast ship" speed="7.28" length="7.73" shape="426.50,100.21 424.84,92.66"/>
    </edge>

    <edge id="173779720" from="4602398759" to="617600661" name="Canberra Link" priority="12" type="highway.primary" spreadType="center" shape="469.94,83.37 509.84,44.13 548.01,3.81">
        <lane id="173779720_0" index="0" disallow="tram rail_urban rail rail_electric rail_fast ship" speed="19.44" length="118.19" shape="467.40,90.35 512.12,46.37 550.33,6.01">
            <param key="origId" value="173779720"/>
        </lane>
        <lane id="173779720_1" index="1" disallow="tram rail_urban rail rail_electric rail_fast ship" speed="19.44" length="118.19" shape="465.16,88.07 509.84,44.13 548.01,3.81">
            <param key="origId" value="173779720"/>
        </lane>
        <lane id="173779720_2" index="2" disallow="tram rail_urban rail rail_electric rail_fast ship" speed="19.44" length="118.19" shape="462.92,85.79 507.56,41.89 545.69,1.61">
            <param key="origId" value="173779720"/>
        </lane>
    </edge>
    <edge id="173779747" from="cluster_244930621_244930624_244930732_244930738" to="4602398755" name="Sembawang Road" priority="12" type="highway.primary" spreadType="center" shape="430.40,101.19 427.82,95.58 407.29,47.27">
        <lane id="173779747_0" index="0" disallow="tram rail_urban rail rail_electric rail_fast ship" speed="16.67" length="37.61" shape="427.75,91.32 413.06,56.75">
            <param key="origId" value="173779747"/>
        </lane>
        <lane id="173779747_1" index="1" disallow="tram rail_urban rail rail_electric rail_fast ship" speed="16.67" length="37.61" shape="424.84,92.66 410.11,58.00">
            <param key="origId" value="173779747"/>
        </lane>
        <param key="origFrom" value="244930738"/>
    </edge>
    <edge id="173779748" from="4602398747" to="4735018248" name="Canberra Link" priority="12" type="highway.primary" spreadType="center" shape="401.72,129.42 322.54,196.50 242.17,245.88 181.93,274.26 167.91,279.17 128.54,292.96 101.89,298.73 77.75,303.96 75.20,304.52 41.50,308.17 0.00,311.90">
        <lane id="173779748_0" index="0" disallow="tram rail_urban rail rail_electric rail_fast ship" speed="16.67" length="451.56" shape="400.80,128.10 321.60,195.20 241.41,244.47 181.32,272.78 167.38,277.66 128.10,291.42 101.55,297.17 77.41,302.40 74.94,302.94 41.34,306.58 -0.14,310.31">
            <param key="origId" value="173779748"/>
        </lane>
        <lane id="173779748_1" index="1" disallow="tram rail_urban rail rail_electric rail_fast ship" speed="16.67" length="451.56" shape="402.87,130.54 323.48,197.80 242.93,247.29 182.54,275.74 168.44,280.68 128.98,294.50 102.23,300.29 78.09,305.52 75.46,306.10 41.66,309.76 0.14,313.49">
            <param key="origId" value="173779748"/>
        </lane>
    </edge>
    <edge id="465248903" from="4602398750" to="4602398747" priority="7" type="highway.primary_link" spreadType="center" shape="406.92,98.67 405.87,108.07 405.29,114.45 404.99,115.75 401.72,129.42">
        <lane id="465248903_0" index="0" disallow="tram rail_urban rail rail_electric rail_fast ship" speed="13.89" length="5.51" shape="405.37,113.54 405.29,114.45 404.99,115.75 404.23,118.92">
            <param key="origId" value="465248903"/>
        </lane>
    </edge>
    <edge id="465248904" from="4602398754" to="4602398751" priority="7" type="highway.primary_link" spreadType="center" shape="389.26,155.19 406.71,157.55 411.93,158.26 420.66,161.67 428.71,167.17 435.65,172.64">
        <lane id="465248904_0" index="0" disallow="tram rail_urban rail rail_electric rail_fast ship" speed="13.89" length="28.67" shape="398.50,156.44 406.71,157.55 411.93,158.26 420.66,161.67 425.40,164.91">
            <param key="origId" value="465248904"/>
        </lane>
    </edge>
    <edge id="465248906" from="4602398758" to="4602398755" priority="7" type="highway.primary_link" spreadType="center" shape="476.49,61.32 448.59,66.09 436.19,64.17 407.29,47.27">
        <lane id="465248906_0" index="0" disallow="tram rail_urban rail rail_electric rail_fast ship" speed="13.89" length="48.65" shape="462.52,63.71 448.59,66.09 436.19,64.17 417.23,53.08">
            <param key="origId" value="465248906"/>
        </lane>
    </edge>
    <edge id="465248907" from="4602398762" to="4602398759" priority="7" type="highway.primary_link" spreadType="center" shape="453.09,161.46 452.50,140.93 452.38,124.46 454.60,114.74 456.11,108.15 469.94,83.37">
        <lane id="465248907_0" index="0" disallow="tram rail_urban rail rail_electric rail_fast ship" speed="13.89" length="40.08" shape="452.52,141.54 452.50,140.93 452.38,124.46 454.60,114.74 456.11,108.15 459.17,102.68">
            <param key="origId" value="465248907"/>
        </lane>
    </edge>
    <edge id="479157174" from="4723055623" to="6728829044" name="Sembawang Road" priority="12" type="highway.primary" spreadType="center">
        <lane id="479157174_0" index="0" disallow="tram rail_urban rail rail_electric rail_fast ship" speed="16.67" length="30.03" shape="477.55,218.77 466.38,190.89">
            <param key="origId" value="479157174"/>
        </lane>
        <lane id="479157174_1" index="1" disallow="tram rail_urban rail rail_electric rail_fast ship" speed="16.67" length="30.03" shape="474.57,219.95 463.41,192.08">
            <param key="origId" value="479157174"/>
        </lane>
    </edge>
    <edge id="479157176" from="4723055629" to="4602398762" name="Sembawang Road" priority="12" type="highway.primary" spreadType="center">
        <lane id="479157176_0" index="0" disallow="tram rail_urban rail rail_electric rail_fast ship" speed="16.67" length="16.28" shape="459.41,164.32 453.35,149.22">
            <param key="origId" value="479157176"/>
        </lane>
        <lane id="479157176_1" index="1" disallow="tram rail_urban rail rail_electric rail_fast ship" speed="16.67" length="16.28" shape="456.44,165.51 450.38,150.41">
            <param key="origId" value="479157176"/>
        </lane>
        <lane id="479157176_2" index="2" disallow="tram rail_urban rail rail_electric rail_fast ship" speed="16.67" length="16.28" shape="453.47,166.70 447.41,151.60">
            <param key="origId" value="479157176"/>
        </lane>