<?xml version="1.0" encoding="UTF-8"?>

<!-- generated on 2023-07-14 14:42:01 by Eclipse SUMO netconvert Version 1.17.0
<configuration xmlns:xsi="http://www.w3.org/2001/XMLSchema-instance" xsi:noNamespaceSchemaLocation="http://sumo.dlr.de/xsd/netconvertConfiguration.xsd">

    <input>
        <sumo-net-file value="osm.net.xml.gz"/>
    </input>

    <output>
        <output-file value="osm.net.xml"/>
        <output.street-names value="true"/>
    </output>

    <processing>
        <geometry.min-radius.fix.railways value="false"/>
        <geometry.max-grade.fix value="false"/>
        <offset.disable-normalization value="true"/>
        <lefthand value="0"/>
    </processing>

    <junctions>
        <no-turnarounds value="true"/>
        <junctions.corner-detail value="5"/>
        <junctions.limit-turn-speed value="5.50"/>
        <rectangular-lane-cut value="0"/>
    </junctions>

    <pedestrian>
        <walkingareas value="0"/>
    </pedestrian>

</configuration>
-->

<net version="1.16" junctionCornerDetail="5" limitTurnSpeed="5.50" xmlns:xsi="http://www.w3.org/2001/XMLSchema-instance" xsi:noNamespaceSchemaLocation="http://sumo.dlr.de/xsd/net_file.xsd">

    <location netOffset="-364378.24,-140511.91" convBoundary="0.00,0.00,3106.33,1503.29" origBoundary="103.780991,1.270977,103.808912,1.284563" projParameter="+proj=utm +zone=48 +ellps=WGS84 +datum=WGS84 +units=m +no_defs"/>

    <type id="highway.bridleway" priority="1" numLanes="1" speed="2.78" allow="pedestrian" oneway="1" width="2.00"/>
    <type id="highway.bus_guideway" priority="1" numLanes="1" speed="27.78" allow="bus" oneway="1"/>
    <type id="highway.cycleway" priority="1" numLanes="1" speed="5.56" allow="bicycle" oneway="0" width="1.00"/>
    <type id="highway.footway" priority="1" numLanes="1" speed="2.78" allow="pedestrian" oneway="1" width="2.00"/>
    <type id="highway.ford" priority="1" numLanes="1" speed="2.78" allow="army" oneway="0"/>
    <type id="highway.living_street" priority="2" numLanes="1" speed="2.78" disallow="tram rail_urban rail rail_electric rail_fast ship" oneway="0"/>
    <type id="highway.motorway" priority="14" numLanes="2" speed="39.44" allow="private emergency authority army vip passenger hov taxi bus coach delivery truck trailer motorcycle evehicle custom1 custom2" oneway="1"/>
    <type id="highway.motorway_link" priority="9" numLanes="1" speed="22.22" allow="private emergency authority army vip passenger hov taxi bus coach delivery truck trailer motorcycle evehicle custom1 custom2" oneway="1"/>
    <type id="highway.path" priority="1" numLanes="1" speed="5.56" allow="pedestrian bicycle" oneway="0" width="2.00"/>
    <type id="highway.pedestrian" priority="1" numLanes="1" speed="2.78" allow="pedestrian" oneway="1" width="2.00"/>
    <type id="highway.primary" priority="12" numLanes="2" speed="27.78" disallow="tram rail_urban rail rail_electric rail_fast ship" oneway="0"/>
    <type id="highway.primary_link" priority="7" numLanes="1" speed="22.22" disallow="tram rail_urban rail rail_electric rail_fast ship" oneway="0"/>
    <type id="highway.raceway" priority="15" numLanes="2" speed="83.33" allow="vip" oneway="0"/>
    <type id="highway.residential" priority="3" numLanes="1" speed="13.89" disallow="tram rail_urban rail rail_electric rail_fast ship" oneway="0"/>
    <type id="highway.secondary" priority="11" numLanes="1" speed="27.78" disallow="tram rail_urban rail rail_electric rail_fast ship" oneway="0"/>
    <type id="highway.secondary_link" priority="6" numLanes="1" speed="22.22" disallow="tram rail_urban rail rail_electric rail_fast ship" oneway="0"/>
    <type id="highway.service" priority="1" numLanes="1" speed="5.56" allow="pedestrian delivery bicycle" oneway="0"/>
    <type id="highway.stairs" priority="1" numLanes="1" speed="1.39" allow="pedestrian" oneway="1" width="2.00"/>
    <type id="highway.step" priority="1" numLanes="1" speed="1.39" allow="pedestrian" oneway="1" width="2.00"/>
    <type id="highway.steps" priority="1" numLanes="1" speed="1.39" allow="pedestrian" oneway="1" width="2.00"/>
    <type id="highway.tertiary" priority="10" numLanes="1" speed="22.22" disallow="tram rail_urban rail rail_electric rail_fast ship" oneway="0"/>
    <type id="highway.tertiary_link" priority="5" numLanes="1" speed="22.22" disallow="tram rail_urban rail rail_electric rail_fast ship" oneway="0"/>
    <type id="highway.track" priority="1" numLanes="1" speed="5.56" allow="pedestrian motorcycle moped bicycle" oneway="0"/>
    <type id="highway.trunk" priority="13" numLanes="2" speed="27.78" disallow="pedestrian bicycle tram rail_urban rail rail_electric rail_fast ship" oneway="0"/>
    <type id="highway.trunk_link" priority="8" numLanes="1" speed="22.22" disallow="pedestrian bicycle tram rail_urban rail rail_electric rail_fast ship" oneway="0"/>
    <type id="highway.unclassified" priority="4" numLanes="1" speed="13.89" disallow="tram rail_urban rail rail_electric rail_fast ship" oneway="0"/>
    <type id="highway.unsurfaced" priority="1" numLanes="1" speed="8.33" disallow="tram rail_urban rail rail_electric rail_fast ship" oneway="0"/>
    <type id="railway.highspeed" priority="21" numLanes="1" speed="69.44" allow="rail_fast" oneway="1"/>
    <type id="railway.light_rail" priority="19" numLanes="1" speed="27.78" allow="rail_urban" oneway="1"/>
    <type id="railway.preserved" priority="16" numLanes="1" speed="27.78" allow="rail" oneway="1"/>
    <type id="railway.rail" priority="20" numLanes="1" speed="44.44" allow="rail" oneway="1"/>
    <type id="railway.subway" priority="18" numLanes="1" speed="27.78" allow="rail_urban" oneway="1"/>
    <type id="railway.tram" priority="17" numLanes="1" speed="13.89" allow="tram" oneway="1"/>

    <edge id=":10170900986_0" function="internal">
        <lane id=":10170900986_0_0" index="0" disallow="tram rail_urban rail rail_electric rail_fast ship" speed="3.65" length="4.67" shape="449.17,1032.00 448.33,1030.83 448.23,1029.94 448.88,1029.33 450.29,1029.00"/>
    </edge>
    <edge id=":10695117789_0" function="internal">
        <lane id=":10695117789_0_0" index="0" disallow="tram rail_urban rail rail_electric rail_fast ship" speed="3.65" length="4.67" shape="363.27,1264.92 361.82,1264.97 361.03,1264.56 360.89,1263.67 361.39,1262.32"/>
    </edge>
    <edge id=":10701784843_0" function="internal">
        <lane id=":10701784843_0_0" index="0" disallow="tram rail_urban rail rail_electric rail_fast ship" speed="3.65" length="4.67" shape="269.47,1279.25 270.89,1279.46 271.60,1280.02 271.58,1280.91 270.83,1282.15"/>
    </edge>
    <edge id=":1119671551_0" function="internal">
        <lane id=":1119671551_0_0" index="0" disallow="tram rail_urban rail rail_electric rail_fast ship" speed="6.24" length="8.64" shape="563.97,1123.79 562.50,1122.15 560.78,1121.48 558.79,1121.77 556.53,1123.03"/>
    </edge>
    <edge id=":1119671551_1" function="internal">
        <lane id=":1119671551_1_0" index="0" disallow="tram rail_urban rail rail_electric rail_fast ship" speed="8.97" length="14.35" shape="563.97,1123.79 562.27,1120.20 561.82,1116.80 562.61,1113.59 564.64,1110.57"/>
    </edge>
    <edge id=":1119671551_2" function="internal">
        <lane id=":1119671551_2_0" index="0" disallow="tram rail_urban rail rail_electric rail_fast ship" speed="7.38" length="9.46" shape="566.90,1112.84 565.53,1114.86 564.98,1116.98 565.25,1119.21 566.34,1121.55"/>
    </edge>
    <edge id=":1119671551_3" function="internal">
        <lane id=":1119671551_3_0" index="0" disallow="tram rail_urban rail rail_electric rail_fast ship" speed="13.89" length="14.56" shape="566.90,1112.84 564.43,1115.58 561.97,1118.22 559.39,1120.71 556.53,1123.03"/>
    </edge>
    <edge id=":1119671551_4" function="internal">
        <lane id=":1119671551_4_0" index="0" disallow="tram rail_urban rail rail_electric rail_fast ship" speed="13.89" length="14.55" shape="554.26,1120.73 557.11,1118.42 559.70,1115.93 562.17,1113.31 564.64,1110.57"/>
    </edge>
    <edge id=":1119671551_5" function="internal">
        <lane id=":1119671551_5_0" index="0" disallow="tram rail_urban rail rail_electric rail_fast ship" speed="7.76" length="4.29" shape="554.26,1120.73 557.98,1118.61"/>
    </edge>
    <edge id=":1119671551_6" function="internal">
        <lane id=":1119671551_6_0" index="0" disallow="tram rail_urban rail rail_electric rail_fast ship" speed="3.66" length="1.46" shape="554.26,1120.73 555.69,1120.45"/>
    </edge>
    <edge id=":1119671551_7" function="internal">
        <lane id=":1119671551_7_0" index="0" disallow="tram rail_urban rail rail_electric rail_fast ship" speed="7.76" length="9.69" shape="557.98,1118.61 561.24,1118.04 564.03,1119.02 566.34,1121.55"/>
    </edge>
    <edge id=":1119671551_8" function="internal">
        <lane id=":1119671551_8_0" index="0" disallow="tram rail_urban rail rail_electric rail_fast ship" speed="3.66" length="3.27" shape="555.69,1120.45 556.55,1120.74 556.83,1121.60 556.53,1123.03"/>
    </edge>
    <edge id=":1119671591_0" function="internal">
        <lane id=":1119671591_0_0" index="0" disallow="tram rail_urban rail rail_electric rail_fast ship" speed="3.65" length="4.67" shape="476.85,1273.12 475.42,1273.25 474.60,1272.87 474.41,1272.00 474.85,1270.62"/>
    </edge>
    <edge id=":1363068205_0" function="internal">
        <lane id=":1363068205_0_0" index="0" disallow="pedestrian bicycle tram rail_urban rail rail_electric rail_fast ship" speed="19.44" length="25.02" shape="576.81,796.53 552.69,803.16"/>
        <lane id=":1363068205_0_1" index="1" disallow="pedestrian bicycle tram rail_urban rail rail_electric rail_fast ship" speed="19.44" length="25.02" shape="575.80,793.49 551.67,800.12"/>
    </edge>
    <edge id=":1363068205_2" function="internal">
        <lane id=":1363068205_2_0" index="0" disallow="pedestrian bicycle tram rail_urban rail rail_electric rail_fast ship" speed="19.44" length="24.92" shape="574.78,790.46 550.72,796.95"/>
    </edge>
    <edge id=":1363068215_0" function="internal">
        <lane id=":1363068215_0_0" index="0" disallow="pedestrian bicycle tram rail_urban rail rail_electric rail_fast ship" speed="19.44" length="8.41" shape="575.60,803.43 583.56,800.87"/>
        <lane id=":1363068215_0_1" index="1" disallow="pedestrian bicycle tram rail_urban rail rail_electric rail_fast ship" speed="19.44" length="8.41" shape="576.49,806.51 584.55,803.91"/>
    </edge>
    <edge id=":1363068215_2" function="internal">
        <lane id=":1363068215_2_0" index="0" disallow="pedestrian bicycle tram rail_urban rail rail_electric rail_fast ship" speed="19.44" length="4.65" shape="581.19,808.59 585.54,806.96"/>
    </edge>
    <edge id=":1363068299_0" function="internal">
        <lane id=":1363068299_0_0" index="0" disallow="pedestrian bicycle tram rail_urban rail rail_electric rail_fast ship" speed="19.44" length="21.29" shape="193.75,1118.86 183.09,1137.29"/>
        <lane id=":1363068299_0_1" index="1" disallow="pedestrian bicycle tram rail_urban rail rail_electric rail_fast ship" speed="19.44" length="21.29" shape="191.12,1117.04 180.46,1135.47"/>
    </edge>
    <edge id=":1363068299_2" function="internal">
        <lane id=":1363068299_2_0" index="0" disallow="pedestrian bicycle tram rail_urban rail rail_electric rail_fast ship" speed="18.05" length="21.15" shape="188.29,1115.28 186.47,1118.77 184.40,1122.84 181.66,1127.72 177.83,1133.64"/>
    </edge>
    <edge id=":1363068300_0" function="internal">
        <lane id=":1363068300_0_0" index="0" disallow="pedestrian bicycle tram rail_urban rail rail_electric rail_fast ship" speed="19.44" length="40.69" shape="184.88,1153.14 205.65,1118.28"/>
        <lane id=":1363068300_0_1" index="1" disallow="pedestrian bicycle tram rail_urban rail rail_electric rail_fast ship" speed="19.44" length="40.69" shape="187.53,1154.94 208.41,1119.89"/>
    </edge>
    <edge id=":1363068300_2" function="internal">
        <lane id=":1363068300_2_0" index="0" disallow="pedestrian bicycle tram rail_urban rail rail_electric rail_fast ship" speed="18.05" length="40.70" shape="187.53,1154.94 211.44,1121.91"/>
        <lane id=":1363068300_2_1" index="1" disallow="pedestrian bicycle tram rail_urban rail rail_electric rail_fast ship" speed="18.05" length="40.70" shape="190.18,1156.74 214.00,1123.83"/>
    </edge>
    <edge id=":2117806793_0" function="internal">
        <lane id=":2117806793_0_0" index="0" disallow="tram rail_urban rail rail_electric rail_fast ship" speed="16.67" length="10.66" shape="559.86,818.31 562.89,817.15 564.96,816.33 567.05,815.60 570.17,814.70"/>
        <lane id=":2117806793_0_1" index="1" disallow="tram rail_urban rail rail_electric rail_fast ship" speed="16.67" length="10.66" shape="560.96,821.32 563.91,820.19 565.93,819.38 567.97,818.66 571.01,817.78"/>
        <lane id=":2117806793_0_2" index="2" disallow="tram rail_urban rail rail_electric rail_fast ship" speed="16.67" length="10.66" shape="562.06,824.32 564.94,823.22 566.90,822.43 568.89,821.73 571.84,820.87"/>
    </edge>
    <edge id=":2117806793_3" function="internal">
        <lane id=":2117806793_3_0" index="0" disallow="tram rail_urban rail rail_electric rail_fast ship" speed="10.49" length="11.56" shape="564.99,827.54 567.03,823.43 568.71,820.44 570.04,818.55 571.01,817.78"/>
        <lane id=":2117806793_3_1" index="1" disallow="tram rail_urban rail rail_electric rail_fast ship" speed="9.72" length="9.85" shape="564.99,827.54 566.41,825.05 568.02,823.11 569.83,821.72 571.84,820.87"/>
    </edge>
    <edge id=":239707177_0" function="internal">
        <lane id=":239707177_0_0" index="0" disallow="tram rail_urban rail rail_electric rail_fast ship" speed="16.67" length="9.53" shape="473.86,1034.45 470.08,1043.19"/>
    </edge>
    <edge id=":239707177_1" function="internal">
        <lane id=":239707177_1_0" index="0" disallow="tram rail_urban rail rail_electric rail_fast ship" speed="6.18" length="7.95" shape="473.86,1034.45 472.67,1036.94 471.37,1038.55 469.96,1039.28 468.43,1039.13"/>
    </edge>
    <edge id=":239707177_2" function="internal">
        <lane id=":239707177_2_0" index="0" disallow="tram rail_urban rail rail_electric rail_fast ship" speed="5.99" length="8.01" shape="469.55,1036.13 470.82,1037.03 471.34,1038.51 471.09,1040.56 470.08,1043.19"/>
    </edge>
    <edge id=":239707177_3" function="internal">
        <lane id=":239707177_3_0" index="0" disallow="tram rail_urban rail rail_electric rail_fast ship" speed="3.65" length="4.67" shape="469.55,1036.13 470.39,1037.30 470.49,1038.19 469.84,1038.80 468.43,1039.13"/>
    </edge>
    <edge id=":246294590_0" function="internal">
        <lane id=":246294590_0_0" index="0" disallow="pedestrian bicycle tram rail_urban rail rail_electric rail_fast ship" speed="7.53" length="10.70" shape="130.58,1253.35 128.13,1250.56 126.70,1248.09 126.29,1245.93 126.92,1244.10"/>
        <lane id=":246294590_0_1" index="1" disallow="pedestrian bicycle tram rail_urban rail rail_electric rail_fast ship" speed="6.70" length="8.27" shape="130.58,1253.35 129.16,1251.53 128.51,1249.68 128.65,1247.80 129.57,1245.90"/>
    </edge>
    <edge id=":246294590_2" function="internal">
        <lane id=":246294590_2_0" index="0" disallow="pedestrian bicycle tram rail_urban rail rail_electric rail_fast ship" speed="19.44" length="9.61" shape="118.72,1249.93 124.27,1242.30"/>
        <lane id=":246294590_2_1" index="1" disallow="pedestrian bicycle tram rail_urban rail rail_electric rail_fast ship" speed="19.44" length="9.61" shape="121.27,1251.87 126.92,1244.10"/>
        <lane id=":246294590_2_2" index="2" disallow="pedestrian bicycle tram rail_urban rail rail_electric rail_fast ship" speed="19.44" length="9.61" shape="123.81,1253.81 129.57,1245.90"/>
    </edge>
    <edge id=":249392331_0" function="internal">
        <lane id=":249392331_0_0" index="0" disallow="pedestrian bicycle tram rail_urban rail rail_electric rail_fast ship" speed="13.89" length="0.28" shape="172.21,1098.18 172.07,1098.42"/>
    </edge>
    <edge id=":4245432330_0" function="internal">
        <lane id=":4245432330_0_0" index="0" disallow="pedestrian bicycle tram rail_urban rail rail_electric rail_fast ship" speed="19.44" length="14.15" shape="106.96,1264.74 115.73,1253.85"/>
        <lane id=":4245432330_0_1" index="1" disallow="pedestrian bicycle tram rail_urban rail rail_electric rail_fast ship" speed="19.44" length="14.15" shape="109.40,1266.81 118.28,1255.79"/>
        <lane id=":4245432330_0_2" index="2" disallow="pedestrian bicycle tram rail_urban rail rail_electric rail_fast ship" speed="19.44" length="14.15" shape="111.84,1268.88 120.82,1257.73"/>
    </edge>
    <edge id=":4245432330_3" function="internal">
        <lane id=":4245432330_3_0" index="0" disallow="pedestrian bicycle tram rail_urban rail rail_electric rail_fast ship" speed="7.31" length="11.74" shape="111.84,1268.88 114.60,1266.17 117.18,1264.76 119.58,1264.65 121.81,1265.85"/>
        <lane id=":4245432330_3_1" index="1" disallow="pedestrian bicycle tram rail_urban rail rail_electric rail_fast ship" speed="6.49" length="9.03" shape="111.84,1268.88 113.69,1267.24 115.62,1266.59 117.63,1266.93 119.72,1268.27"/>
    </edge>
    <edge id=":4490316591_0" function="internal">
        <lane id=":4490316591_0_0" index="0" disallow="tram rail_urban rail rail_electric rail_fast ship" speed="16.67" length="8.21" shape="531.69,904.43 532.24,902.08 532.24,900.39 532.23,898.69 532.75,896.34"/>
    </edge>
    <edge id=":4561326513_0" function="internal">
        <lane id=":4561326513_0_0" index="0" disallow="tram rail_urban rail rail_electric rail_fast ship" speed="3.65" length="4.67" shape="621.98,891.45 623.42,891.35 624.23,891.74 624.40,892.62 623.94,893.99"/>
    </edge>
    <edge id=":4721252893_0" function="internal">
        <lane id=":4721252893_0_0" index="0" disallow="tram rail_urban rail rail_electric rail_fast ship" speed="16.67" length="8.21" shape="558.68,798.49 556.48,799.49 555.13,800.52 553.78,801.55 551.58,802.54"/>
        <lane id=":4721252893_0_1" index="1" disallow="tram rail_urban rail rail_electric rail_fast ship" speed="16.67" length="8.21" shape="557.66,795.46 555.47,796.46 554.12,797.49 552.77,798.52 550.58,799.51"/>
        <lane id=":4721252893_0_2" index="2" disallow="tram rail_urban rail rail_electric rail_fast ship" speed="16.67" length="8.21" shape="556.64,792.42 554.45,793.42 553.11,794.45 551.76,795.48 549.57,796.47"/>
        <lane id=":4721252893_0_3" index="3" disallow="tram rail_urban rail rail_electric rail_fast ship" speed="16.67" length="8.21" shape="556.64,792.42 554.30,792.95 552.61,792.93 550.91,792.92 548.56,793.43"/>
    </edge>
    <edge id=":4941625364_0" function="internal">
        <lane id=":4941625364_0_0" index="0" disallow="tram rail_urban rail rail_electric rail_fast ship" speed="16.67" length="9.51" shape="537.60,840.52 538.36,843.52 539.49,845.51 540.34,847.48 540.26,850.44"/>
        <lane id=":4941625364_0_1" index="1" disallow="tram rail_urban rail rail_electric rail_fast ship" speed="16.67" length="9.51" shape="534.41,840.82 535.15,843.55 536.28,845.34 537.15,847.12 537.12,849.81"/>
        <lane id=":4941625364_0_2" index="2" disallow="tram rail_urban rail rail_electric rail_fast ship" speed="16.67" length="9.51" shape="534.41,840.82 534.63,843.31 534.65,845.03 534.45,846.74 533.99,849.19"/>
    </edge>
    <edge id=":4941625376_0" function="internal">
        <lane id=":4941625376_0_0" index="0" disallow="pedestrian bicycle tram rail_urban rail rail_electric rail_fast ship" speed="13.89" length="0.10" shape="180.03,1102.17 180.03,1102.17"/>
    </edge>
    <edge id=":4941625379_0" function="internal">
        <lane id=":4941625379_0_0" index="0" disallow="pedestrian bicycle tram rail_urban rail rail_electric rail_fast ship" speed="8.33" length="8.87" shape="100.67,1149.70 98.08,1148.76 96.02,1148.72 94.07,1148.53 91.82,1147.14"/>
        <lane id=":4941625379_0_1" index="1" disallow="pedestrian bicycle tram rail_urban rail rail_electric rail_fast ship" speed="8.33" length="8.87" shape="100.67,1149.70 98.54,1148.45 97.13,1147.51 95.81,1146.44 93.98,1144.78"/>
    </edge>
    <edge id=":4941625383_0" function="internal">
        <lane id=":4941625383_0_0" index="0" disallow="pedestrian bicycle tram rail_urban rail rail_electric rail_fast ship" speed="8.33" length="9.39" shape="80.38,1136.64 78.56,1134.58 77.68,1132.86 76.81,1131.12 75.08,1128.97"/>
    </edge>
    <edge id=":4941625383_1" function="internal">
        <lane id=":4941625383_1_0" index="0" disallow="pedestrian bicycle tram rail_urban rail rail_electric rail_fast ship" speed="11.11" length="8.82" shape="82.54,1134.28 80.75,1132.42 79.81,1130.91 79.10,1129.22 78.00,1126.83"/>
    </edge>
    <edge id=":5135512093_0" function="internal">
        <lane id=":5135512093_0_0" index="0" disallow="pedestrian bicycle tram rail_urban rail rail_electric rail_fast ship" speed="18.05" length="0.10" shape="309.35,922.04 309.35,922.04"/>
    </edge>
    <edge id=":5135512094_0" function="internal">
        <lane id=":5135512094_0_0" index="0" disallow="pedestrian bicycle tram rail_urban rail rail_electric rail_fast ship" speed="18.05" length="0.25" shape="289.79,943.87 289.63,944.06"/>
    </edge>
    <edge id=":5176589592_0" function="internal">
        <lane id=":5176589592_0_0" index="0" disallow="tram rail_urban rail rail_electric rail_fast ship" speed="16.67" length="7.98" shape="548.31,822.54 555.80,819.80"/>
        <lane id=":5176589592_0_1" index="1" disallow="tram rail_urban rail rail_electric rail_fast ship" speed="16.67" length="7.98" shape="549.41,825.55 556.90,822.80"/>
        <lane id=":5176589592_0_2" index="2" disallow="tram rail_urban rail rail_electric rail_fast ship" speed="16.67" length="7.98" shape="550.51,828.55 558.00,825.81"/>
    </edge>
    <edge id=":5176589592_3" function="internal">
        <lane id=":5176589592_3_0" index="0" disallow="tram rail_urban rail rail_electric rail_fast ship" speed="9.17" length="9.48" shape="553.85,831.74 554.32,829.99 555.14,827.04 556.07,824.21 556.90,822.80"/>
        <lane id=":5176589592_3_1" index="1" disallow="tram rail_urban rail rail_electric rail_fast ship" speed="8.19" length="7.46" shape="553.85,831.74 554.70,829.50 555.67,827.77 556.77,826.54 558.00,825.81"/>
    </edge>
    <edge id=":5176589594_0" function="internal">
        <lane id=":5176589594_0_0" index="0" disallow="tram rail_urban rail rail_electric rail_fast ship" speed="16.67" length="15.00" shape="544.04,851.96 544.89,847.73 544.91,844.76 544.54,841.74 544.17,837.38"/>
        <lane id=":5176589594_0_1" index="1" disallow="tram rail_urban rail rail_electric rail_fast ship" speed="16.67" length="15.00" shape="547.13,852.78 548.03,848.37 548.10,845.28 547.74,842.13 547.38,837.59"/>
    </edge>
    <edge id=":5176589594_2" function="internal">
        <lane id=":5176589594_2_0" index="0" disallow="tram rail_urban rail rail_electric rail_fast ship" speed="15.28" length="14.83" shape="547.13,852.78 551.69,838.66"/>
    </edge>
    <edge id=":5176817476_0" function="internal">
        <lane id=":5176817476_0_0" index="0" disallow="pedestrian bicycle tram rail_urban rail rail_electric rail_fast ship" speed="9.65" length="8.32" shape="68.40,1103.74 68.22,1101.25 68.09,1099.43 68.49,1097.81 69.88,1095.94"/>
    </edge>
    <edge id=":5176817476_1" function="internal">
        <lane id=":5176817476_1_0" index="0" disallow="tram rail_urban rail rail_electric rail_fast ship" speed="13.89" length="8.49" shape="62.03,1100.32 67.56,1093.73"/>
        <lane id=":5176817476_1_1" index="1" disallow="tram rail_urban rail rail_electric rail_fast ship" speed="13.89" length="8.49" shape="64.50,1102.37 69.88,1095.94"/>
    </edge>
    <edge id=":6144084209_0" function="internal">
        <lane id=":6144084209_0_0" index="0" disallow="tram rail_urban rail rail_electric rail_fast ship" speed="16.67" length="8.21" shape="507.93,938.22 507.44,940.58 507.48,942.28 507.51,943.97 507.02,946.33"/>
    </edge>
    <edge id=":6590641628_0" function="internal">
        <lane id=":6590641628_0_0" index="0" disallow="tram rail_urban rail rail_electric rail_fast ship" speed="16.67" length="1.60" shape="693.54,773.38 694.06,774.89"/>
        <lane id=":6590641628_0_1" index="1" disallow="tram rail_urban rail rail_electric rail_fast ship" speed="16.67" length="1.60" shape="694.57,776.41 695.09,777.92"/>
        <lane id=":6590641628_0_2" index="2" disallow="tram rail_urban rail rail_electric rail_fast ship" speed="16.67" length="1.60" shape="695.61,779.43 696.13,780.94"/>
        <lane id=":6590641628_0_3" index="3" disallow="tram rail_urban rail rail_electric rail_fast ship" speed="16.67" length="1.60" shape="696.64,782.46 697.16,783.97"/>
    </edge>
    <edge id=":6696315241_0" function="internal">
        <lane id=":6696315241_0_0" index="0" disallow="tram rail_urban rail rail_electric rail_fast ship" speed="13.89" length="8.21" shape="123.24,1021.94 121.80,1023.86 121.12,1025.40 120.45,1026.95 119.03,1028.89"/>
        <lane id=":6696315241_0_1" index="1" disallow="tram rail_urban rail rail_electric rail_fast ship" speed="13.89" length="8.21" shape="120.90,1019.76 119.45,1021.69 118.77,1023.24 118.09,1024.79 116.66,1026.74"/>
        <lane id=":6696315241_0_2" index="2" disallow="tram rail_urban rail rail_electric rail_fast ship" speed="13.89" length="8.21" shape="120.90,1019.76 119.08,1021.36 117.58,1022.16 116.09,1022.98 114.29,1024.59"/>
    </edge>
    <edge id=":6823152690_0" function="internal">
        <lane id=":6823152690_0_0" index="0" disallow="tram rail_urban rail rail_electric rail_fast ship" speed="3.65" length="4.67" shape="732.87,1064.16 733.05,1065.59 732.71,1066.42 731.84,1066.64 730.45,1066.26"/>
    </edge>
    <edge id=":7043412396_0" function="internal">
        <lane id=":7043412396_0_0" index="0" disallow="tram rail_urban rail rail_electric rail_fast ship" speed="16.67" length="59.14" shape="599.10,806.80 655.61,789.37"/>
        <lane id=":7043412396_0_1" index="1" disallow="tram rail_urban rail rail_electric rail_fast ship" speed="16.67" length="59.14" shape="600.04,809.86 656.55,792.43"/>
        <lane id=":7043412396_0_2" index="2" disallow="tram rail_urban rail rail_electric rail_fast ship" speed="16.67" length="59.14" shape="600.99,812.92 657.49,795.49"/>
    </edge>
    <edge id=":7043412396_3" function="internal">
        <lane id=":7043412396_3_0" index="0" disallow="tram rail_urban rail rail_electric rail_fast ship" speed="5.01" length="1.05" shape="653.96,787.10 654.67,786.31"/>
    </edge>
    <edge id=":7043412401_0" function="internal">
        <lane id=":7043412401_0_0" index="0" disallow="tram rail_urban rail rail_electric rail_fast ship" speed="19.45" length="34.65" shape="678.10,761.72 666.76,765.83 657.37,769.43 650.13,771.79 645.23,772.19"/>
    </edge>
    <edge id=":7043412401_1" function="internal">
        <lane id=":7043412401_1_0" index="0" disallow="tram rail_urban rail rail_electric rail_fast ship" speed="16.67" length="3.00" shape="677.08,758.69 674.24,759.64"/>
        <lane id=":7043412401_1_1" index="1" disallow="tram rail_urban rail rail_electric rail_fast ship" speed="16.67" length="3.00" shape="676.06,755.65 673.22,756.61"/>
        <lane id=":7043412401_1_2" index="2" disallow="tram rail_urban rail rail_electric rail_fast ship" speed="16.67" length="3.00" shape="675.04,752.62 672.20,753.58"/>
    </edge>
    <edge id=":cluster_10219491635_10219491636_10219491637_10219491638_#4more_0" function="internal">
        <lane id=":cluster_10219491635_10219491636_10219491637_10219491638_#4more_0_0" index="0" disallow="pedestrian bicycle tram rail_urban rail rail_electric rail_fast ship" speed="11.49" length="36.38" shape="543.86,829.92 542.18,817.58 538.38,809.58 532.45,805.91 524.39,806.57"/>
    </edge>
    <edge id=":cluster_10219491635_10219491636_10219491637_10219491638_#4more_1" function="internal">
        <lane id=":cluster_10219491635_10219491636_10219491637_10219491638_#4more_1_0" index="0" disallow="tram rail_urban rail rail_electric rail_fast ship" speed="6.57" length="9.96" shape="547.05,829.62 544.14,835.04 540.91,837.06"/>
    </edge>
    <edge id=":cluster_10219491635_10219491636_10219491637_10219491638_#4more_10" function="internal">
        <lane id=":cluster_10219491635_10219491636_10219491637_10219491638_#4more_10_0" index="0" disallow="tram rail_urban rail rail_electric rail_fast ship" speed="6.57" length="9.96" shape="540.91,837.06 537.35,835.69 533.47,830.92"/>
    </edge>
    <edge id=":cluster_10219491635_10219491636_10219491637_10219491638_#4more_2" function="internal">
        <lane id=":cluster_10219491635_10219491636_10219491637_10219491638_#4more_2_0" index="0" disallow="tram rail_urban rail rail_electric rail_fast ship" speed="11.46" length="25.04" shape="539.46,806.56 537.42,808.68 536.28,813.40 536.02,820.71 536.65,830.62"/>
    </edge>
    <edge id=":cluster_10219491635_10219491636_10219491637_10219491638_#4more_3" function="internal">
        <lane id=":cluster_10219491635_10219491636_10219491637_10219491638_#4more_3_0" index="0" disallow="pedestrian bicycle tram rail_urban rail rail_electric rail_fast ship" speed="16.67" length="14.31" shape="538.36,803.55 533.98,804.76 530.62,805.35 527.63,805.79 524.39,806.57"/>
    </edge>
    <edge id=":cluster_10219491635_10219491636_10219491637_10219491638_#4more_4" function="internal">
        <lane id=":cluster_10219491635_10219491636_10219491637_10219491638_#4more_4_0" index="0" disallow="tram rail_urban rail rail_electric rail_fast ship" speed="10.02" length="24.87" shape="536.15,797.54 551.08,801.14 558.00,807.67"/>
    </edge>