<?xml version="1.0" encoding="UTF-8"?>

<!-- generated on 2023-07-11 15:59:15 by Eclipse SUMO netconvert Version 1.17.0
<configuration xmlns:xsi="http://www.w3.org/2001/XMLSchema-instance" xsi:noNamespaceSchemaLocation="http://sumo.dlr.de/xsd/netconvertConfiguration.xsd">

    <input>
        <sumo-net-file value="osm.net.xml.gz"/>
    </input>

    <output>
        <output-file value="osm.net.xml"/>
        <output.street-names value="true"/>
    </output>

    <processing>
        <geometry.min-radius.fix.railways value="false"/>
        <geometry.max-grade.fix value="false"/>
        <offset.disable-normalization value="true"/>
        <lefthand value="1"/>
    </processing>

    <junctions>
        <no-turnarounds value="true"/>
        <junctions.corner-detail value="5"/>
        <junctions.limit-turn-speed value="5.50"/>
        <rectangular-lane-cut value="0"/>
    </junctions>

    <pedestrian>
        <walkingareas value="0"/>
    </pedestrian>

</configuration>
-->

<net version="1.16" junctionCornerDetail="5" lefthand="true" limitTurnSpeed="5.50" xmlns:xsi="http://www.w3.org/2001/XMLSchema-instance" xsi:noNamespaceSchemaLocation="http://sumo.dlr.de/xsd/net_file.xsd">

    <location netOffset="-361481.26,-156928.72" convBoundary="0.00,0.00,578.47,606.98" origBoundary="103.754886,1.419443,103.760082,1.424934" projParameter="+proj=utm +zone=48 +ellps=WGS84 +datum=WGS84 +units=m +no_defs"/>

    <type id="highway.bridleway" priority="1" numLanes="1" speed="2.78" allow="pedestrian" oneway="1" width="2.00"/>
    <type id="highway.bus_guideway" priority="1" numLanes="1" speed="27.78" allow="bus" oneway="1"/>
    <type id="highway.cycleway" priority="1" numLanes="1" speed="5.56" allow="bicycle" oneway="0" width="1.00"/>
    <type id="highway.footway" priority="1" numLanes="1" speed="2.78" allow="pedestrian" oneway="1" width="2.00"/>
    <type id="highway.ford" priority="1" numLanes="1" speed="2.78" allow="army" oneway="0"/>
    <type id="highway.living_street" priority="2" numLanes="1" speed="2.78" disallow="tram rail_urban rail rail_electric rail_fast ship" oneway="0"/>
    <type id="highway.motorway" priority="14" numLanes="2" speed="39.44" allow="private emergency authority army vip passenger hov taxi bus coach delivery truck trailer motorcycle evehicle custom1 custom2" oneway="1"/>
    <type id="highway.motorway_link" priority="9" numLanes="1" speed="22.22" allow="private emergency authority army vip passenger hov taxi bus coach delivery truck trailer motorcycle evehicle custom1 custom2" oneway="1"/>
    <type id="highway.path" priority="1" numLanes="1" speed="5.56" allow="pedestrian bicycle" oneway="0" width="2.00"/>
    <type id="highway.pedestrian" priority="1" numLanes="1" speed="2.78" allow="pedestrian" oneway="1" width="2.00"/>
    <type id="highway.primary" priority="12" numLanes="2" speed="27.78" disallow="tram rail_urban rail rail_electric rail_fast ship" oneway="0"/>
    <type id="highway.primary_link" priority="7" numLanes="1" speed="22.22" disallow="tram rail_urban rail rail_electric rail_fast ship" oneway="0"/>
    <type id="highway.raceway" priority="15" numLanes="2" speed="83.33" allow="vip" oneway="0"/>
    <type id="highway.residential" priority="3" numLanes="1" speed="13.89" disallow="tram rail_urban rail rail_electric rail_fast ship" oneway="0"/>
    <type id="highway.secondary" priority="11" numLanes="1" speed="27.78" disallow="tram rail_urban rail rail_electric rail_fast ship" oneway="0"/>
    <type id="highway.secondary_link" priority="6" numLanes="1" speed="22.22" disallow="tram rail_urban rail rail_electric rail_fast ship" oneway="0"/>
    <type id="highway.service" priority="1" numLanes="1" speed="5.56" allow="pedestrian delivery bicycle" oneway="0"/>
    <type id="highway.stairs" priority="1" numLanes="1" speed="1.39" allow="pedestrian" oneway="1" width="2.00"/>
    <type id="highway.step" priority="1" numLanes="1" speed="1.39" allow="pedestrian" oneway="1" width="2.00"/>
    <type id="highway.steps" priority="1" numLanes="1" speed="1.39" allow="pedestrian" oneway="1" width="2.00"/>
    <type id="highway.tertiary" priority="10" numLanes="1" speed="22.22" disallow="tram rail_urban rail rail_electric rail_fast ship" oneway="0"/>
    <type id="highway.tertiary_link" priority="5" numLanes="1" speed="22.22" disallow="tram rail_urban rail rail_electric rail_fast ship" oneway="0"/>
    <type id="highway.track" priority="1" numLanes="1" speed="5.56" allow="pedestrian motorcycle moped bicycle" oneway="0"/>
    <type id="highway.trunk" priority="13" numLanes="2" speed="27.78" disallow="pedestrian bicycle tram rail_urban rail rail_electric rail_fast ship" oneway="0"/>
    <type id="highway.trunk_link" priority="8" numLanes="1" speed="22.22" disallow="pedestrian bicycle tram rail_urban rail rail_electric rail_fast ship" oneway="0"/>
    <type id="highway.unclassified" priority="4" numLanes="1" speed="13.89" disallow="tram rail_urban rail rail_electric rail_fast ship" oneway="0"/>
    <type id="highway.unsurfaced" priority="1" numLanes="1" speed="8.33" disallow="tram rail_urban rail rail_electric rail_fast ship" oneway="0"/>
    <type id="railway.highspeed" priority="21" numLanes="1" speed="69.44" allow="rail_fast" oneway="1"/>
    <type id="railway.light_rail" priority="19" numLanes="1" speed="27.78" allow="rail_urban" oneway="1"/>
    <type id="railway.preserved" priority="16" numLanes="1" speed="27.78" allow="rail" oneway="1"/>
    <type id="railway.rail" priority="20" numLanes="1" speed="44.44" allow="rail" oneway="1"/>
    <type id="railway.subway" priority="18" numLanes="1" speed="27.78" allow="rail_urban" oneway="1"/>
    <type id="railway.tram" priority="17" numLanes="1" speed="13.89" allow="tram" oneway="1"/>

    <edge id=":1110899518_0" function="internal">
        <lane id=":1110899518_0_0" index="0" disallow="tram rail_urban rail rail_electric rail_fast ship" speed="16.66" length="23.53" shape="279.93,407.17 279.69,402.94 279.47,397.72 280.12,391.45 282.50,384.06"/>
    </edge>
    <edge id=":1110899518_1" function="internal">
        <lane id=":1110899518_1_0" index="0" disallow="tram rail_urban rail rail_electric rail_fast ship" speed="19.44" length="23.53" shape="275.57,406.22 277.58,399.61 278.68,395.00 279.96,390.45 282.50,384.06"/>
        <lane id=":1110899518_1_1" index="1" disallow="tram rail_urban rail rail_electric rail_fast ship" speed="19.44" length="23.53" shape="272.54,405.18 274.58,398.50 275.70,393.83 277.00,389.23 279.57,382.76"/>
        <lane id=":1110899518_1_2" index="2" disallow="tram rail_urban rail rail_electric rail_fast ship" speed="19.44" length="23.53" shape="269.52,404.15 271.57,397.39 272.72,392.66 274.04,388.01 276.64,381.46"/>
    </edge>
    <edge id=":1474198027_0" function="internal">
        <lane id=":1474198027_0_0" index="0" disallow="pedestrian tram rail_urban rail rail_electric rail_fast ship" speed="15.28" length="10.68" shape="303.74,447.45 300.88,446.16 299.13,444.79 297.65,443.10 295.55,440.85"/>
    </edge>
    <edge id=":1474198027_1" function="internal">
        <lane id=":1474198027_1_0" index="0" disallow="pedestrian tram rail_urban rail rail_electric rail_fast ship" speed="16.67" length="11.44" shape="302.65,450.46 299.76,448.97 298.09,447.35 296.45,445.68 293.61,444.04"/>
        <lane id=":1474198027_1_1" index="1" disallow="pedestrian tram rail_urban rail rail_electric rail_fast ship" speed="16.67" length="11.44" shape="301.57,453.47 298.63,451.96 296.93,450.33 295.25,448.65 292.37,446.99"/>
        <lane id=":1474198027_1_2" index="2" disallow="pedestrian tram rail_urban rail rail_electric rail_fast ship" speed="16.67" length="11.44" shape="300.48,456.48 297.50,454.96 295.77,453.31 294.06,451.62 291.13,449.94"/>
        <lane id=":1474198027_1_3" index="3" disallow="pedestrian tram rail_urban rail rail_electric rail_fast ship" speed="16.67" length="11.44" shape="299.39,459.50 296.37,457.95 294.61,456.30 292.87,454.59 289.90,452.89"/>
    </edge>
    <edge id=":1474198028_0" function="internal">
        <lane id=":1474198028_0_0" index="0" disallow="tram rail_urban rail rail_electric rail_fast ship" speed="15.28" length="19.15" shape="293.55,482.95 297.21,481.86 301.28,480.95 306.20,480.61 312.40,481.22"/>
    </edge>
    <edge id=":1474198028_1" function="internal">
        <lane id=":1474198028_1_0" index="0" disallow="tram rail_urban rail rail_electric rail_fast ship" speed="16.67" length="18.77" shape="293.85,477.59 299.29,478.98 303.05,479.73 306.86,480.32 312.40,481.22"/>
        <lane id=":1474198028_1_1" index="1" disallow="tram rail_urban rail rail_electric rail_fast ship" speed="16.67" length="18.77" shape="294.69,474.51 300.04,475.87 303.75,476.61 307.49,477.18 312.95,478.07"/>
    </edge>
    <edge id=":1972010035_0" function="internal">
        <lane id=":1972010035_0_0" index="0" disallow="tram rail_urban rail rail_electric rail_fast ship" speed="16.66" length="13.23" shape="264.76,360.24 262.84,363.89 261.07,366.38 259.24,368.49 257.17,371.01"/>
    </edge>
    <edge id=":1972010035_1" function="internal">
        <lane id=":1972010035_1_0" index="0" disallow="tram rail_urban rail rail_electric rail_fast ship" speed="19.44" length="13.19" shape="264.76,360.24 263.29,363.97 262.64,366.65 262.08,369.38 260.89,373.23"/>
        <lane id=":1972010035_1_1" index="1" disallow="tram rail_urban rail rail_electric rail_fast ship" speed="19.44" length="13.19" shape="267.67,361.57 266.23,365.23 265.60,367.87 265.06,370.54 263.90,374.32"/>
        <lane id=":1972010035_1_2" index="2" disallow="tram rail_urban rail rail_electric rail_fast ship" speed="19.44" length="13.19" shape="270.58,362.90 269.17,366.50 268.56,369.08 268.04,371.70 266.91,375.41"/>
        <lane id=":1972010035_1_3" index="3" disallow="tram rail_urban rail rail_electric rail_fast ship" speed="19.44" length="13.19" shape="273.48,364.24 272.11,367.76 271.52,370.30 271.02,372.87 269.92,376.50"/>
    </edge>
    <edge id=":1972010039_0" function="internal">
        <lane id=":1972010039_0_0" index="0" disallow="tram rail_urban rail rail_electric rail_fast ship" speed="15.28" length="15.23" shape="208.33,382.07 205.14,380.73 202.29,379.15 199.43,376.82 196.20,373.24"/>
    </edge>
    <edge id=":1972010039_1" function="internal">
        <lane id=":1972010039_1_0" index="0" disallow="tram rail_urban rail rail_electric rail_fast ship" speed="16.67" length="15.15" shape="205.06,385.71 196.20,373.24"/>
        <lane id=":1972010039_1_1" index="1" disallow="tram rail_urban rail rail_electric rail_fast ship" speed="16.67" length="15.15" shape="202.48,387.60 193.71,375.25"/>
        <lane id=":1972010039_1_2" index="2" disallow="tram rail_urban rail rail_electric rail_fast ship" speed="16.67" length="15.15" shape="199.90,389.49 191.22,377.26"/>
    </edge>
    <edge id=":1972010051_0" function="internal">
        <lane id=":1972010051_0_0" index="0" disallow="tram rail_urban rail rail_electric rail_fast ship" speed="16.67" length="8.20" shape="169.54,384.98 170.74,387.08 171.23,388.71 171.73,390.33 172.95,392.42"/>
        <lane id=":1972010051_0_1" index="1" disallow="tram rail_urban rail rail_electric rail_fast ship" speed="16.67" length="8.20" shape="172.14,383.12 173.33,385.21 173.82,386.83 174.32,388.45 175.53,390.53"/>
        <lane id=":1972010051_0_2" index="2" disallow="tram rail_urban rail rail_electric rail_fast ship" speed="16.67" length="8.20" shape="172.14,383.12 173.74,384.91 175.12,385.89 176.50,386.86 178.11,388.64"/>
    </edge>
    <edge id=":1972010065_0" function="internal">
        <lane id=":1972010065_0_0" index="0" disallow="tram rail_urban rail rail_electric rail_fast ship" speed="14.35" length="10.61" shape="250.18,517.60 251.00,514.66 252.23,512.88 253.93,511.35 256.12,509.15"/>
    </edge>
    <edge id=":1972010065_1" function="internal">
        <lane id=":1972010065_1_0" index="0" disallow="tram rail_urban rail rail_electric rail_fast ship" speed="16.67" length="10.78" shape="250.18,517.60 252.67,507.44"/>
        <lane id=":1972010065_1_1" index="1" disallow="tram rail_urban rail rail_electric rail_fast ship" speed="16.67" length="10.78" shape="247.01,517.10 249.54,506.79"/>
        <lane id=":1972010065_1_2" index="2" disallow="tram rail_urban rail rail_electric rail_fast ship" speed="16.67" length="10.78" shape="243.84,516.61 246.40,506.14"/>
        <lane id=":1972010065_1_3" index="3" disallow="tram rail_urban rail rail_electric rail_fast ship" speed="16.67" length="10.78" shape="240.67,516.11 243.27,505.50"/>
        <lane id=":1972010065_1_4" index="4" disallow="tram rail_urban rail rail_electric rail_fast ship" speed="16.67" length="10.78" shape="237.49,515.61 238.10,512.38 238.71,510.21 239.37,508.05 240.14,504.85"/>
    </edge>
    <edge id=":1972014129_0" function="internal">
        <lane id=":1972014129_0_0" index="0" disallow="tram rail_urban rail rail_electric rail_fast ship" speed="16.67" length="17.04" shape="222.00,541.26 218.60,558.15"/>
        <lane id=":1972014129_0_1" index="1" disallow="tram rail_urban rail rail_electric rail_fast ship" speed="16.67" length="17.04" shape="225.16,541.75 221.79,558.45"/>
        <lane id=":1972014129_0_2" index="2" disallow="tram rail_urban rail rail_electric rail_fast ship" speed="16.67" length="17.04" shape="228.33,542.24 224.97,558.75"/>
    </edge>
    <edge id=":1972014129_3" function="internal">
        <lane id=":1972014129_3_0" index="0" disallow="tram rail_urban rail rail_electric rail_fast ship" speed="15.28" length="17.09" shape="217.87,541.13 218.28,544.70 218.70,548.33 218.88,552.62 218.60,558.15"/>
    </edge>
    <edge id=":236726192_0" function="internal">
        <lane id=":236726192_0_0" index="0" disallow="tram rail_urban rail rail_electric rail_fast ship" speed="15.28" length="11.10" shape="202.34,435.20 204.52,437.77 205.97,439.68 206.98,441.73 207.85,444.66"/>
    </edge>
    <edge id=":236726192_1" function="internal">
        <lane id=":236726192_1_0" index="0" disallow="tram rail_urban rail rail_electric rail_fast ship" speed="16.67" length="8.96" shape="202.34,435.20 204.64,437.07 206.78,437.54 209.10,437.81 211.94,439.07"/>
        <lane id=":236726192_1_1" index="1" disallow="tram rail_urban rail rail_electric rail_fast ship" speed="16.67" length="8.96" shape="204.79,433.15 206.92,434.82 208.92,435.15 211.09,435.29 213.72,436.41"/>
        <lane id=":236726192_1_2" index="2" disallow="tram rail_urban rail rail_electric rail_fast ship" speed="16.67" length="8.96" shape="207.25,431.09 209.20,432.57 211.07,432.76 213.08,432.78 215.50,433.75"/>
        <lane id=":236726192_1_3" index="3" disallow="tram rail_urban rail rail_electric rail_fast ship" speed="16.67" length="8.96" shape="209.70,429.03 211.49,430.31 213.21,430.37 215.07,430.27 217.27,431.09"/>
        <lane id=":236726192_1_4" index="4" disallow="tram rail_urban rail rail_electric rail_fast ship" speed="16.67" length="8.96" shape="212.15,426.97 213.77,428.07 215.35,427.98 217.06,427.75 219.05,428.43"/>
    </edge>
    <edge id=":6097459919_0" function="internal">
        <lane id=":6097459919_0_0" index="0" disallow="pedestrian tram rail_urban rail rail_electric rail_fast ship" speed="16.67" length="8.14" shape="339.62,462.11 337.50,461.14 336.21,460.12 334.93,459.08 332.83,458.04"/>
        <lane id=":6097459919_0_1" index="1" disallow="pedestrian tram rail_urban rail rail_electric rail_fast ship" speed="16.67" length="8.14" shape="339.62,462.11 337.32,461.61 335.65,461.63 334.00,461.62 331.72,461.04"/>
        <lane id=":6097459919_0_2" index="2" disallow="pedestrian tram rail_urban rail rail_electric rail_fast ship" speed="16.67" length="8.14" shape="338.61,465.15 336.28,464.64 334.60,464.65 332.92,464.63 330.61,464.05"/>
        <lane id=":6097459919_0_3" index="3" disallow="pedestrian tram rail_urban rail rail_electric rail_fast ship" speed="16.67" length="8.14" shape="337.61,468.19 335.24,467.67 333.54,467.67 331.85,467.64 329.51,467.05"/>
        <lane id=":6097459919_0_4" index="4" disallow="pedestrian tram rail_urban rail rail_electric rail_fast ship" speed="16.67" length="8.14" shape="336.60,471.23 334.21,470.69 332.48,470.69 330.77,470.66 328.40,470.05"/>
    </edge>
    <edge id=":6097459920_0" function="internal">
        <lane id=":6097459920_0_0" index="0" disallow="pedestrian tram rail_urban rail rail_electric rail_fast ship" speed="16.67" length="8.60" shape="368.40,474.98 366.22,473.75 365.10,472.24 363.99,470.71 361.81,469.47"/>
        <lane id=":6097459920_0_1" index="1" disallow="pedestrian tram rail_urban rail rail_electric rail_fast ship" speed="16.67" length="8.60" shape="367.42,478.03 365.23,476.80 364.11,475.28 362.99,473.75 360.81,472.50"/>
        <lane id=":6097459920_0_2" index="2" disallow="pedestrian tram rail_urban rail rail_electric rail_fast ship" speed="16.67" length="8.60" shape="367.42,478.03 359.80,475.54"/>
        <lane id=":6097459920_0_3" index="3" disallow="pedestrian tram rail_urban rail rail_electric rail_fast ship" speed="16.67" length="8.60" shape="367.42,478.03 364.91,477.75 363.10,478.32 361.29,478.88 358.80,478.58"/>
    </edge>
    <edge id=":6139194360_0" function="internal">
        <lane id=":6139194360_0_0" index="0" disallow="tram rail_urban rail rail_electric rail_fast ship" speed="16.67" length="8.40" shape="186.28,410.66 187.36,412.98 187.43,414.91 187.54,416.80 188.75,419.01"/>
        <lane id=":6139194360_0_1" index="1" disallow="tram rail_urban rail rail_electric rail_fast ship" speed="16.67" length="8.40" shape="188.86,408.78 189.90,411.05 189.95,412.93 190.04,414.79 191.20,416.96"/>
        <lane id=":6139194360_0_2" index="2" disallow="tram rail_urban rail rail_electric rail_fast ship" speed="16.67" length="8.40" shape="191.45,406.89 192.45,409.11 192.47,410.96 192.53,412.78 193.66,414.91"/>
        <lane id=":6139194360_0_3" index="3" disallow="tram rail_urban rail rail_electric rail_fast ship" speed="16.67" length="8.40" shape="191.45,406.89 196.11,412.85"/>
        <lane id=":6139194360_0_4" index="4" disallow="tram rail_urban rail rail_electric rail_fast ship" speed="16.67" length="8.40" shape="191.45,406.89 193.20,408.45 194.93,408.91 196.69,409.34 198.57,410.80"/>
    </edge>
    <edge id=":6497622317_0" function="internal">
        <lane id=":6497622317_0_0" index="0" disallow="tram rail_urban rail rail_electric rail_fast ship" speed="16.67" length="8.21" shape="181.91,360.63 180.60,358.61 180.02,357.02 179.44,355.42 178.13,353.40"/>
        <lane id=":6497622317_0_1" index="1" disallow="tram rail_urban rail rail_electric rail_fast ship" speed="16.67" length="8.21" shape="179.42,362.64 178.11,360.62 177.53,359.03 176.95,357.44 175.64,355.41"/>
    </edge>
    <edge id=":cluster_1861193132_236726227_236727524_243986818_0" function="internal">
        <lane id=":cluster_1861193132_236726227_236727524_243986818_0_0" index="0" disallow="tram rail_urban rail rail_electric rail_fast ship" speed="18.05" length="51.19" shape="245.22,416.08 241.02,429.83 238.28,442.85 236.33,455.13 234.51,466.61"/>
        <lane id=":cluster_1861193132_236726227_236727524_243986818_0_1" index="1" disallow="tram rail_urban rail rail_electric rail_fast ship" speed="18.05" length="51.19" shape="248.24,417.15 244.06,430.81 241.36,443.65 239.46,455.74 237.67,467.14"/>
        <lane id=":cluster_1861193132_236726227_236727524_243986818_0_2" index="2" disallow="tram rail_urban rail rail_electric rail_fast ship" speed="18.05" length="51.19" shape="251.26,418.22 247.10,431.79 244.45,444.45 242.59,456.36 240.82,467.68"/>
    </edge>
    <edge id=":cluster_1861193132_236726227_236727524_243986818_3" function="internal">
        <lane id=":cluster_1861193132_236726227_236727524_243986818_3_0" index="0" disallow="tram rail_urban rail rail_electric rail_fast ship" speed="15.08" length="48.55" shape="254.28,419.28 254.12,429.39 257.30,443.75 262.41,457.23 268.03,464.66"/>
        <lane id=":cluster_1861193132_236726227_236727524_243986818_3_1" index="1" disallow="tram rail_urban rail rail_electric rail_fast ship" speed="15.32" length="50.15" shape="254.28,419.28 251.16,433.02 252.63,444.67 258.68,454.24 269.31,461.73"/>
    </edge>
    <edge id=":cluster_1861193132_236726227_236727524_243986818_5" function="internal">
        <lane id=":cluster_1861193132_236726227_236727524_243986818_5_0" index="0" disallow="tram rail_urban rail rail_electric rail_fast ship" speed="5.58" length="13.91" shape="254.28,419.28 255.33,423.45 257.18,425.36 259.82,425.04 263.26,422.46"/>
    </edge>
    <edge id=":cluster_1861193132_236726227_236727524_243986818_6" function="internal">
        <lane id=":cluster_1861193132_236726227_236727524_243986818_6_0" index="0" disallow="tram rail_urban rail rail_electric rail_fast ship" speed="16.67" length="45.95" shape="279.61,438.18 267.03,433.21 256.46,429.10 247.15,424.70 238.34,418.82"/>
        <lane id=":cluster_1861193132_236726227_236727524_243986818_6_1" index="1" disallow="tram rail_urban rail rail_electric rail_fast ship" speed="16.67" length="45.95" shape="278.33,441.11 265.71,436.13 255.07,432.02 245.69,427.61 236.85,421.73"/>
        <lane id=":cluster_1861193132_236726227_236727524_243986818_6_2" index="2" disallow="tram rail_urban rail rail_electric rail_fast ship" speed="16.67" length="45.95" shape="277.04,444.04 264.40,439.06 253.69,434.94 244.24,430.52 235.36,424.63"/>
    </edge>
    <edge id=":cluster_1861193132_236726227_236727524_243986818_9" function="internal">
        <lane id=":cluster_1861193132_236726227_236727524_243986818_9_0" index="0" disallow="tram rail_urban rail rail_electric rail_fast ship" speed="12.89" length="23.94" shape="275.76,446.97 266.57,447.45 254.22,452.49 253.06,453.26"/>
        <lane id=":cluster_1861193132_236726227_236727524_243986818_9_1" index="1" disallow="tram rail_urban rail rail_electric rail_fast ship" speed="13.52" length="30.01" shape="275.76,446.97 262.08,443.41 251.97,445.73 248.39,449.90"/>
    </edge>
    <edge id=":cluster_1861193132_236726227_236727524_243986818_11" function="internal">
        <lane id=":cluster_1861193132_236726227_236727524_243986818_11_0" index="0" disallow="tram rail_urban rail rail_electric rail_fast ship" speed="7.10" length="20.12" shape="275.76,446.97 268.62,448.24 265.16,451.12 265.39,455.62 267.48,458.87"/>
    </edge>
    <edge id=":cluster_1861193132_236726227_236727524_243986818_24" function="internal">
        <lane id=":cluster_1861193132_236726227_236727524_243986818_24_0" index="0" disallow="tram rail_urban rail rail_electric rail_fast ship" speed="12.89" length="21.04" shape="253.06,453.26 243.12,459.82 237.67,467.14"/>
    </edge>
    <edge id=":cluster_1861193132_236726227_236727524_243986818_25" function="internal">
        <lane id=":cluster_1861193132_236726227_236727524_243986818_25_0" index="0" disallow="tram rail_urban rail rail_electric rail_fast ship" speed="13.52" length="19.64" shape="248.39,449.90 245.02,453.84 240.82,467.68"/>
    </edge>
    <edge id=":cluster_1861193132_236726227_236727524_243986818_26" function="internal">
        <lane id=":cluster_1861193132_236726227_236727524_243986818_26_0" index="0" disallow="tram rail_urban rail rail_electric rail_fast ship" speed="7.10" length="3.39" shape="267.48,458.87 269.31,461.73"/>
    </edge>
    <edge id=":cluster_1861193132_236726227_236727524_243986818_12" function="internal">
        <lane id=":cluster_1861193132_236726227_236727524_243986818_12_0" index="0" disallow="tram rail_urban rail rail_electric rail_fast ship" speed="18.05" length="47.83" shape="260.21,470.94 262.96,455.94 264.72,444.42 266.50,434.57 269.29,424.60"/>
        <lane id=":cluster_1861193132_236726227_236727524_243986818_12_1" index="1" disallow="tram rail_urban rail rail_electric rail_fast ship" speed="18.05" length="47.83" shape="257.05,470.41 259.85,455.21 261.65,443.52 263.47,433.55 266.27,423.53"/>
        <lane id=":cluster_1861193132_236726227_236727524_243986818_12_2" index="2" disallow="tram rail_urban rail rail_electric rail_fast ship" speed="18.05" length="47.83" shape="253.89,469.88 256.73,454.48 258.59,442.62 260.43,432.53 263.26,422.46"/>
    </edge>
    <edge id=":cluster_1861193132_236726227_236727524_243986818_15" function="internal">
        <lane id=":cluster_1861193132_236726227_236727524_243986818_15_0" index="0" disallow="tram rail_urban rail rail_electric rail_fast ship" speed="16.67" length="26.40" shape="250.73,469.35 250.07,458.96 246.50,444.00 246.30,443.42"/>
        <lane id=":cluster_1861193132_236726227_236727524_243986818_15_1" index="1" disallow="tram rail_urban rail rail_electric rail_fast ship" speed="16.67" length="19.07" shape="247.58,468.81 247.17,458.87 245.21,449.96"/>
    </edge>
    <edge id=":cluster_1861193132_236726227_236727524_243986818_17" function="internal">
        <lane id=":cluster_1861193132_236726227_236727524_243986818_17_0" index="0" disallow="tram rail_urban rail rail_electric rail_fast ship" speed="4.87" length="6.63" shape="247.58,468.81 246.32,466.00 244.77,464.87 243.21,465.34"/>
    </edge>
    <edge id=":cluster_1861193132_236726227_236727524_243986818_27" function="internal">
        <lane id=":cluster_1861193132_236726227_236727524_243986818_27_0" index="0" disallow="tram rail_urban rail rail_electric rail_fast ship" speed="16.67" length="23.77" shape="246.30,443.42 241.58,429.82 236.85,421.73"/>
    </edge>
    <edge id=":cluster_1861193132_236726227_236727524_243986818_28" function="internal">
        <lane id=":cluster_1861193132_236726227_236727524_243986818_28_0" index="0" disallow="tram rail_urban rail rail_electric rail_fast ship" speed="16.67" length="27.36" shape="245.21,449.96 244.14,445.08 239.77,432.11 235.36,424.63"/>
    </edge>
    <edge id=":cluster_1861193132_236726227_236727524_243986818_29" function="internal">
        <lane id=":cluster_1861193132_236726227_236727524_243986818_29_0" index="0" disallow="tram rail_urban rail rail_electric rail_fast ship" speed="4.87" length="3.37" shape="243.21,465.34 242.94,465.43 240.82,467.68"/>
    </edge>
    <edge id=":cluster_1861193132_236726227_236727524_243986818_18" function="internal">
        <lane id=":cluster_1861193132_236726227_236727524_243986818_18_0" index="0" disallow="tram rail_urban rail rail_electric rail_fast ship" speed="16.67" length="47.43" shape="223.88,447.07 237.03,454.90 247.69,459.77 257.17,463.42 266.75,467.60"/>
        <lane id=":cluster_1861193132_236726227_236727524_243986818_18_1" index="1" disallow="tram rail_urban rail rail_electric rail_fast ship" speed="16.67" length="47.43" shape="225.35,444.20 238.43,452.01 249.03,456.86 258.46,460.49 268.03,464.66"/>
        <lane id=":cluster_1861193132_236726227_236727524_243986818_18_2" index="2" disallow="tram rail_urban rail rail_electric rail_fast ship" speed="16.67" length="47.43" shape="226.82,441.33 239.83,449.11 250.38,453.94 259.76,457.56 269.31,461.73"/>
    </edge>
    <edge id=":cluster_1861193132_236726227_236727524_243986818_21" function="internal">
        <lane id=":cluster_1861193132_236726227_236727524_243986818_21_0" index="0" disallow="tram rail_urban rail rail_electric rail_fast ship" speed="12.43" length="22.92" shape="228.29,438.47 236.93,439.40 248.97,436.01 250.48,435.21"/>
        <lane id=":cluster_1861193132_236726227_236727524_243986818_21_1" index="1" disallow="tram rail_urban rail rail_electric rail_fast ship" speed="11.76" length="18.76" shape="229.75,435.60 237.70,436.81 248.06,434.07"/>
    </edge>
    <edge id=":cluster_1861193132_236726227_236727524_243986818_23" function="internal">
        <lane id=":cluster_1861193132_236726227_236727524_243986818_23_0" index="0" disallow="tram rail_urban rail rail_electric rail_fast ship" speed="6.31" length="14.38" shape="229.75,435.60 235.27,434.96 238.04,432.92 238.07,429.48 237.12,427.78"/>
    </edge>
    <edge id=":cluster_1861193132_236726227_236727524_243986818_30" function="internal">
        <lane id=":cluster_1861193132_236726227_236727524_243986818_30_0" index="0" disallow="tram rail_urban rail rail_electric rail_fast ship" speed="12.43" length="19.92" shape="250.48,435.21 260.16,430.11 266.27,423.53"/>
    </edge>
    <edge id=":cluster_1861193132_236726227_236727524_243986818_31" function="internal">
        <lane id=":cluster_1861193132_236726227_236727524_243986818_31_0" index="0" disallow="tram rail_urban rail rail_electric rail_fast ship" speed="11.76" length="19.44" shape="248.06,434.07 248.20,434.04 257.85,428.76 263.26,422.46"/>
    </edge>
    <edge id=":cluster_1861193132_236726227_236727524_243986818_32" function="internal">
        <lane id=":cluster_1861193132_236726227_236727524_243986818_32_0" index="0" disallow="tram rail_urban rail rail_electric rail_fast ship" speed="6.31" length="3.60" shape="237.12,427.78 235.36,424.63"/>
    </edge>

    <edge id="15092798" from="cluster_1861193132_236726227_236727524_243986818" to="1110899518" name="Turf Club Avenue" priority="12" type="highway.primary" spreadType="center" shape="261.92,435.98 264.61,428.40 282.35,376.49">
        <lane id="15092798_0" index="0" disallow="tram rail_urban rail rail_electric rail_fast ship" speed="19.44" length="19.39" shape="269.29,424.60 275.57,406.22">
            <param key="origId" value="15092798"/>
        </lane>
        <lane id="15092798_1" index="1" disallow="tram rail_urban rail rail_electric rail_fast ship" speed="19.44" length="19.39" shape="266.27,423.53 272.54,405.18">
            <param key="origId" value="15092798"/>
        </lane>
        <lane id="15092798_2" index="2" disallow="tram rail_urban rail rail_electric rail_fast ship" speed="19.44" length="19.39" shape="263.26,422.46 269.52,404.15">
            <param key="origId" value="15092798"/>
        </lane>