<?xml version="1.0" encoding="UTF-8"?>

<!-- generated on 2023-07-18 13:21:29 by Eclipse SUMO netconvert Version 1.17.0
<configuration xmlns:xsi="http://www.w3.org/2001/XMLSchema-instance" xsi:noNamespaceSchemaLocation="http://sumo.dlr.de/xsd/netconvertConfiguration.xsd">

    <input>
        <sumo-net-file value="osm.net.xml.gz"/>
    </input>

    <output>
        <output-file value="osm.net.xml"/>
        <output.street-names value="true"/>
    </output>

    <processing>
        <geometry.min-radius.fix.railways value="false"/>
        <geometry.max-grade.fix value="false"/>
        <offset.disable-normalization value="true"/>
        <lefthand value="1"/>
    </processing>

    <junctions>
        <no-turnarounds value="true"/>
        <junctions.corner-detail value="5"/>
        <junctions.limit-turn-speed value="5.50"/>
        <rectangular-lane-cut value="0"/>
    </junctions>

    <pedestrian>
        <walkingareas value="0"/>
    </pedestrian>

</configuration>
-->

<net version="1.16" junctionCornerDetail="5" lefthand="true" limitTurnSpeed="5.50" xmlns:xsi="http://www.w3.org/2001/XMLSchema-instance" xsi:noNamespaceSchemaLocation="http://sumo.dlr.de/xsd/net_file.xsd">

    <location netOffset="-379405.69,-145878.56" convBoundary="0.00,0.00,715.59,373.95" origBoundary="103.916029,1.319571,103.922459,1.322952" projParameter="+proj=utm +zone=48 +ellps=WGS84 +datum=WGS84 +units=m +no_defs"/>

    <type id="highway.bridleway" priority="1" numLanes="1" speed="2.78" allow="pedestrian" oneway="1" width="2.00"/>
    <type id="highway.bus_guideway" priority="1" numLanes="1" speed="27.78" allow="bus" oneway="1"/>
    <type id="highway.cycleway" priority="1" numLanes="1" speed="5.56" allow="bicycle" oneway="0" width="1.00"/>
    <type id="highway.footway" priority="1" numLanes="1" speed="2.78" allow="pedestrian" oneway="1" width="2.00"/>
    <type id="highway.ford" priority="1" numLanes="1" speed="2.78" allow="army" oneway="0"/>
    <type id="highway.living_street" priority="2" numLanes="1" speed="2.78" disallow="tram rail_urban rail rail_electric rail_fast ship" oneway="0"/>
    <type id="highway.motorway" priority="14" numLanes="2" speed="39.44" allow="private emergency authority army vip passenger hov taxi bus coach delivery truck trailer motorcycle evehicle custom1 custom2" oneway="1"/>
    <type id="highway.motorway_link" priority="9" numLanes="1" speed="22.22" allow="private emergency authority army vip passenger hov taxi bus coach delivery truck trailer motorcycle evehicle custom1 custom2" oneway="1"/>
    <type id="highway.path" priority="1" numLanes="1" speed="5.56" allow="pedestrian bicycle" oneway="0" width="2.00"/>
    <type id="highway.pedestrian" priority="1" numLanes="1" speed="2.78" allow="pedestrian" oneway="1" width="2.00"/>
    <type id="highway.primary" priority="12" numLanes="2" speed="27.78" disallow="tram rail_urban rail rail_electric rail_fast ship" oneway="0"/>
    <type id="highway.primary_link" priority="7" numLanes="1" speed="22.22" disallow="tram rail_urban rail rail_electric rail_fast ship" oneway="0"/>
    <type id="highway.raceway" priority="15" numLanes="2" speed="83.33" allow="vip" oneway="0"/>
    <type id="highway.residential" priority="3" numLanes="1" speed="13.89" disallow="tram rail_urban rail rail_electric rail_fast ship" oneway="0"/>
    <type id="highway.secondary" priority="11" numLanes="1" speed="27.78" disallow="tram rail_urban rail rail_electric rail_fast ship" oneway="0"/>
    <type id="highway.secondary_link" priority="6" numLanes="1" speed="22.22" disallow="tram rail_urban rail rail_electric rail_fast ship" oneway="0"/>
    <type id="highway.service" priority="1" numLanes="1" speed="5.56" allow="pedestrian delivery bicycle" oneway="0"/>
    <type id="highway.stairs" priority="1" numLanes="1" speed="1.39" allow="pedestrian" oneway="1" width="2.00"/>
    <type id="highway.step" priority="1" numLanes="1" speed="1.39" allow="pedestrian" oneway="1" width="2.00"/>
    <type id="highway.steps" priority="1" numLanes="1" speed="1.39" allow="pedestrian" oneway="1" width="2.00"/>
    <type id="highway.tertiary" priority="10" numLanes="1" speed="22.22" disallow="tram rail_urban rail rail_electric rail_fast ship" oneway="0"/>
    <type id="highway.tertiary_link" priority="5" numLanes="1" speed="22.22" disallow="tram rail_urban rail rail_electric rail_fast ship" oneway="0"/>
    <type id="highway.track" priority="1" numLanes="1" speed="5.56" allow="pedestrian motorcycle moped bicycle" oneway="0"/>
    <type id="highway.trunk" priority="13" numLanes="2" speed="27.78" disallow="pedestrian bicycle tram rail_urban rail rail_electric rail_fast ship" oneway="0"/>
    <type id="highway.trunk_link" priority="8" numLanes="1" speed="22.22" disallow="pedestrian bicycle tram rail_urban rail rail_electric rail_fast ship" oneway="0"/>
    <type id="highway.unclassified" priority="4" numLanes="1" speed="13.89" disallow="tram rail_urban rail rail_electric rail_fast ship" oneway="0"/>
    <type id="highway.unsurfaced" priority="1" numLanes="1" speed="8.33" disallow="tram rail_urban rail rail_electric rail_fast ship" oneway="0"/>
    <type id="railway.highspeed" priority="21" numLanes="1" speed="69.44" allow="rail_fast" oneway="1"/>
    <type id="railway.light_rail" priority="19" numLanes="1" speed="27.78" allow="rail_urban" oneway="1"/>
    <type id="railway.preserved" priority="16" numLanes="1" speed="27.78" allow="rail" oneway="1"/>
    <type id="railway.rail" priority="20" numLanes="1" speed="44.44" allow="rail" oneway="1"/>
    <type id="railway.subway" priority="18" numLanes="1" speed="27.78" allow="rail_urban" oneway="1"/>
    <type id="railway.tram" priority="17" numLanes="1" speed="13.89" allow="tram" oneway="1"/>

    <edge id=":1849457924_0" function="internal">
        <lane id=":1849457924_0_0" index="0" disallow="tram rail_urban rail rail_electric rail_fast ship" speed="3.65" length="4.67" shape="163.02,247.53 161.62,247.20 160.76,247.45 160.45,248.29 160.68,249.71"/>
    </edge>
    <edge id=":1849457941_0" function="internal">
        <lane id=":1849457941_0_0" index="0" disallow="tram rail_urban rail rail_electric rail_fast ship" speed="3.65" length="4.67" shape="150.05,373.66 150.62,374.99 151.33,375.52 152.19,375.27 153.19,374.24"/>
    </edge>
    <edge id=":1849631516_0" function="internal">
        <lane id=":1849631516_0_0" index="0" disallow="tram rail_urban rail rail_electric rail_fast ship" speed="13.89" length="8.06" shape="406.92,267.42 407.55,265.16 408.37,263.73 409.23,262.31 409.98,260.07"/>
        <lane id=":1849631516_0_1" index="1" disallow="tram rail_urban rail rail_electric rail_fast ship" speed="13.89" length="8.06" shape="406.92,267.42 407.06,265.04 406.80,263.38 406.59,261.73 406.86,259.37"/>
    </edge>
    <edge id=":2130815704_0" function="internal">
        <lane id=":2130815704_0_0" index="0" disallow="tram rail_urban rail rail_electric rail_fast ship" speed="3.65" length="4.67" shape="347.82,256.59 349.24,256.85 350.09,256.56 350.36,255.71 350.06,254.29"/>
    </edge>
    <edge id=":2130815705_0" function="internal">
        <lane id=":2130815705_0_0" index="0" disallow="tram rail_urban rail rail_electric rail_fast ship" speed="5.97" length="9.16" shape="262.47,286.82 260.96,288.94 259.25,289.81 257.31,289.45 255.17,287.85"/>
    </edge>
    <edge id=":2130815705_1" function="internal">
        <lane id=":2130815705_1_0" index="0" disallow="tram rail_urban rail rail_electric rail_fast ship" speed="11.11" length="16.44" shape="262.47,286.82 260.62,290.34 258.58,294.06 256.47,297.74 254.40,301.14"/>
    </edge>
    <edge id=":2130815705_2" function="internal">
        <lane id=":2130815705_2_0" index="0" disallow="tram rail_urban rail rail_electric rail_fast ship" speed="9.31" length="15.91" shape="262.47,286.82 261.37,290.62 261.43,294.85 262.56,298.79 264.66,301.75"/>
    </edge>
    <edge id=":2130815705_3" function="internal">
        <lane id=":2130815705_3_0" index="0" disallow="tram rail_urban rail rail_electric rail_fast ship" speed="3.65" length="4.67" shape="262.47,286.82 262.65,288.25 263.18,288.97 264.08,288.97 265.33,288.26"/>
    </edge>
    <edge id=":2130815705_4" function="internal">
        <lane id=":2130815705_4_0" index="0" disallow="tram rail_urban rail rail_electric rail_fast ship" speed="8.20" length="12.15" shape="266.77,299.34 264.84,297.03 263.95,294.42 264.12,291.49 265.33,288.26"/>
    </edge>
    <edge id=":2130815705_5" function="internal">
        <lane id=":2130815705_5_0" index="0" disallow="tram rail_urban rail rail_electric rail_fast ship" speed="11.11" length="16.32" shape="266.77,299.34 255.17,287.85"/>
    </edge>
    <edge id=":2130815705_6" function="internal">
        <lane id=":2130815705_6_0" index="0" disallow="tram rail_urban rail rail_electric rail_fast ship" speed="7.75" length="14.82" shape="266.77,299.34 263.28,297.08 260.06,296.63 257.10,297.98 254.40,301.14"/>
    </edge>
    <edge id=":2130815705_7" function="internal">
        <lane id=":2130815705_7_0" index="0" disallow="tram rail_urban rail rail_electric rail_fast ship" speed="6.20" length="9.05" shape="257.11,302.85 258.76,300.92 260.57,300.09 262.53,300.37 264.66,301.75"/>
    </edge>
    <edge id=":2130815705_8" function="internal">
        <lane id=":2130815705_8_0" index="0" disallow="tram rail_urban rail rail_electric rail_fast ship" speed="11.11" length="16.75" shape="257.11,302.85 259.20,299.41 261.37,295.64 263.46,291.82 265.33,288.26"/>
    </edge>
    <edge id=":2130815705_9" function="internal">
        <lane id=":2130815705_9_0" index="0" disallow="tram rail_urban rail rail_electric rail_fast ship" speed="9.21" length="16.00" shape="257.11,302.85 258.38,299.29 258.41,295.14 257.32,291.09 255.17,287.85"/>
    </edge>
    <edge id=":2130815705_10" function="internal">
        <lane id=":2130815705_10_0" index="0" disallow="tram rail_urban rail rail_electric rail_fast ship" speed="8.17" length="12.41" shape="252.71,289.92 254.84,292.62 255.84,295.39 255.69,298.23 254.40,301.14"/>
    </edge>
    <edge id=":2130815705_11" function="internal">
        <lane id=":2130815705_11_0" index="0" disallow="tram rail_urban rail rail_electric rail_fast ship" speed="11.11" length="16.82" shape="252.71,289.92 264.66,301.75"/>
    </edge>
    <edge id=":2130815705_12" function="internal">
        <lane id=":2130815705_12_0" index="0" disallow="tram rail_urban rail rail_electric rail_fast ship" speed="7.64" length="15.82" shape="252.71,289.92 256.43,292.71 259.77,293.36 262.74,291.88 265.33,288.26"/>
    </edge>
    <edge id=":2130815707_0" function="internal">
        <lane id=":2130815707_0_0" index="0" disallow="tram rail_urban rail rail_electric rail_fast ship" speed="11.11" length="7.66" shape="245.73,314.86 244.50,316.77 243.70,318.13 243.18,319.60 242.77,321.81"/>
    </edge>
    <edge id=":2130815707_1" function="internal">
        <lane id=":2130815707_1_0" index="0" disallow="tram rail_urban rail rail_electric rail_fast ship" speed="11.11" length="6.32" shape="245.94,322.28 246.29,320.46 246.73,319.26 247.41,318.14 248.44,316.57"/>
    </edge>
    <edge id=":2130815707_2" function="internal">
        <lane id=":2130815707_2_0" index="0" disallow="tram rail_urban rail rail_electric rail_fast ship" speed="7.76" length="6.99" shape="240.79,315.39 241.87,316.72 242.57,318.24 242.87,319.93 242.77,321.81"/>
    </edge>
    <edge id=":2130815707_3" function="internal">
        <lane id=":2130815707_3_0" index="0" disallow="tram rail_urban rail rail_electric rail_fast ship" speed="6.12" length="9.10" shape="240.79,315.39 243.22,317.35 245.31,318.20 247.05,317.94 248.44,316.57"/>
    </edge>
    <edge id=":241978353_0" function="internal">
        <lane id=":241978353_0_0" index="0" allow="bus bicycle" speed="6.47" length="9.03" shape="410.50,211.36 409.29,213.53 407.68,214.78 405.67,215.11 403.26,214.52"/>
    </edge>
    <edge id=":241978353_1" function="internal">
        <lane id=":241978353_1_0" index="0" disallow="tram rail_urban rail rail_electric rail_fast ship" speed="13.89" length="20.41" shape="410.50,211.36 409.00,214.98 407.26,219.12 405.43,224.20 403.63,230.67"/>
        <lane id=":241978353_1_1" index="1" disallow="tram rail_urban rail rail_electric rail_fast ship" speed="13.89" length="20.41" shape="410.50,211.36 409.49,215.07 408.83,219.42 408.08,224.72 406.78,231.28"/>
    </edge>
    <edge id=":241978353_3" function="internal">
        <lane id=":241978353_3_0" index="0" disallow="tram rail_urban rail rail_electric rail_fast ship" speed="6.48" length="9.03" shape="410.50,211.36 409.95,213.78 410.30,215.78 411.57,217.38 413.74,218.56"/>
    </edge>
    <edge id=":241978353_4" function="internal">
        <lane id=":241978353_4_0" index="0" disallow="tram rail_urban rail rail_electric rail_fast ship" speed="16.67" length="13.52" shape="399.70,223.43 403.41,223.85 406.14,222.55 408.88,221.23 412.63,221.56"/>
        <lane id=":241978353_4_1" index="1" disallow="tram rail_urban rail rail_electric rail_fast ship" speed="16.67" length="13.52" shape="400.89,220.46 404.58,220.87 407.29,219.57 410.01,218.24 413.74,218.56"/>
    </edge>
    <edge id=":241978353_6" function="internal">
        <lane id=":241978353_6_0" index="0" allow="bus bicycle" speed="3.65" length="4.67" shape="402.08,217.49 403.49,217.19 404.16,216.60 404.08,215.71 403.26,214.52"/>
    </edge>
    <edge id=":245198579_0" function="internal">
        <lane id=":245198579_0_0" index="0" allow="bus bicycle" speed="3.65" length="4.67" shape="82.77,186.46 81.60,187.31 81.23,188.12 81.66,188.91 82.89,189.66"/>
    </edge>
    <edge id=":245221749_0" function="internal">
        <lane id=":245221749_0_0" index="0" disallow="bus tram rail_urban rail rail_electric rail_fast ship" speed="7.17" length="8.96" shape="489.04,74.25 487.63,76.42 485.97,77.82 484.05,78.48 481.87,78.38"/>
    </edge>
    <edge id=":245221749_1" function="internal">
        <lane id=":245221749_1_0" index="0" disallow="tram rail_urban rail rail_electric rail_fast ship" speed="13.89" length="14.54" shape="489.04,74.25 487.69,77.65 486.94,81.16 486.71,84.76 486.92,88.44"/>
    </edge>
    <edge id=":245221749_2" function="internal">
        <lane id=":245221749_2_0" index="0" disallow="bus tram rail_urban rail rail_electric rail_fast ship" speed="11.11" length="11.52" shape="493.15,80.75 481.87,78.38"/>
    </edge>
    <edge id=":245221749_3" function="internal">
        <lane id=":245221749_3_0" index="0" disallow="tram rail_urban rail rail_electric rail_fast ship" speed="6.77" length="12.25" shape="493.15,80.75 490.06,80.65 487.99,81.91 486.95,84.50 486.92,88.44"/>
    </edge>
    <edge id=":245221749_4" function="internal">
        <lane id=":245221749_4_0" index="0" disallow="tram rail_urban rail rail_electric rail_fast ship" speed="3.65" length="4.67" shape="493.15,80.75 491.81,81.28 491.25,81.98 491.47,82.84 492.48,83.88"/>
    </edge>
    <edge id=":245221749_5" function="internal">
        <lane id=":245221749_5_0" index="0" disallow="bus tram rail_urban rail rail_electric rail_fast ship" speed="7.59" length="9.67" shape="481.22,81.51 483.49,82.34 485.19,83.77 486.33,85.80 486.92,88.44"/>
    </edge>
    <edge id=":245221749_6" function="internal">
        <lane id=":245221749_6_0" index="0" disallow="bus tram rail_urban rail rail_electric rail_fast ship" speed="11.11" length="11.50" shape="481.22,81.51 492.48,83.88"/>
    </edge>
    <edge id=":259201747_0" function="internal">
        <lane id=":259201747_0_0" index="0" disallow="tram rail_urban rail rail_electric rail_fast ship" speed="6.44" length="9.03" shape="404.14,56.49 403.34,58.84 401.98,60.35 400.06,61.01 397.58,60.83"/>
    </edge>
    <edge id=":259201747_1" function="internal">
        <lane id=":259201747_1_0" index="0" disallow="tram rail_urban rail rail_electric rail_fast ship" speed="11.11" length="14.49" shape="404.14,56.49 401.06,70.65"/>
    </edge>
    <edge id=":259201747_2" function="internal">
        <lane id=":259201747_2_0" index="0" disallow="bus tram rail_urban rail rail_electric rail_fast ship" speed="8.07" length="14.24" shape="404.14,56.49 403.95,60.42 405.04,63.47 407.39,65.66 411.02,66.98"/>
    </edge>
    <edge id=":259201747_3" function="internal">
        <lane id=":259201747_3_0" index="0" disallow="bus tram rail_urban rail rail_electric rail_fast ship" speed="6.59" length="9.15" shape="411.68,63.84 409.36,63.00 407.85,61.59 407.16,59.62 407.29,57.09"/>
    </edge>
    <edge id=":259201747_4" function="internal">
        <lane id=":259201747_4_0" index="0" disallow="bus tram rail_urban rail rail_electric rail_fast ship" speed="11.11" length="14.42" shape="411.68,63.84 397.58,60.83"/>
    </edge>
    <edge id=":259201747_5" function="internal">
        <lane id=":259201747_5_0" index="0" disallow="bus tram rail_urban rail rail_electric rail_fast ship" speed="8.13" length="14.26" shape="411.68,63.84 407.83,63.61 404.77,64.66 402.52,67.01 401.06,70.65"/>
    </edge>
    <edge id=":259201747_6" function="internal">
        <lane id=":259201747_6_0" index="0" disallow="bus tram rail_urban rail rail_electric rail_fast ship" speed="6.66" length="9.23" shape="404.17,71.41 405.11,69.05 406.57,67.52 408.54,66.83 411.02,66.98"/>
    </edge>
    <edge id=":259201747_7" function="internal">
        <lane id=":259201747_7_0" index="0" disallow="tram rail_urban rail rail_electric rail_fast ship" speed="11.11" length="14.66" shape="404.17,71.41 407.29,57.09"/>
    </edge>
    <edge id=":259201747_8" function="internal">
        <lane id=":259201747_8_0" index="0" disallow="tram rail_urban rail rail_electric rail_fast ship" speed="7.96" length="14.30" shape="404.17,71.41 404.56,67.50 403.59,64.44 401.26,62.21 397.58,60.83"/>
    </edge>
    <edge id=":259201747_9" function="internal">
        <lane id=":259201747_9_0" index="0" disallow="tram rail_urban rail rail_electric rail_fast ship" speed="3.65" length="4.67" shape="404.17,71.41 403.68,70.06 403.00,69.48 402.13,69.67 401.06,70.65"/>
    </edge>
    <edge id=":259201747_10" function="internal">
        <lane id=":259201747_10_0" index="0" disallow="tram rail_urban rail rail_electric rail_fast ship" speed="6.46" length="9.05" shape="396.89,63.95 399.22,64.83 400.69,66.23 401.31,68.17 401.06,70.65"/>
    </edge>
    <edge id=":259201747_11" function="internal">
        <lane id=":259201747_11_0" index="0" disallow="bus tram rail_urban rail rail_electric rail_fast ship" speed="11.11" length="14.45" shape="396.89,63.95 411.02,66.98"/>
    </edge>
    <edge id=":259201747_12" function="internal">
        <lane id=":259201747_12_0" index="0" disallow="tram rail_urban rail rail_electric rail_fast ship" speed="7.95" length="14.31" shape="396.89,63.95 400.82,64.25 403.86,63.20 406.01,60.81 407.29,57.09"/>
    </edge>
    <edge id=":259400694_0" function="internal">
        <lane id=":259400694_0_0" index="0" disallow="tram rail_urban rail rail_electric rail_fast ship" speed="3.65" length="4.67" shape="391.60,135.68 392.36,136.90 393.15,137.33 393.96,136.95 394.80,135.78"/>
    </edge>
    <edge id=":259400745_0" function="internal">
        <lane id=":259400745_0_0" index="0" disallow="tram rail_urban rail rail_electric rail_fast ship" speed="6.69" length="9.24" shape="331.68,63.54 329.22,63.56 327.30,62.77 325.90,61.17 325.04,58.75"/>
    </edge>
    <edge id=":259400745_1" function="internal">
        <lane id=":259400745_1_0" index="0" disallow="tram rail_urban rail rail_electric rail_fast ship" speed="11.11" length="14.37" shape="331.68,63.54 317.51,65.93"/>
    </edge>
    <edge id=":259400745_2" function="internal">
        <lane id=":259400745_2_0" index="0" disallow="tram rail_urban rail rail_electric rail_fast ship" speed="11.11" length="14.31" shape="318.08,69.08 332.18,66.70"/>
    </edge>
    <edge id=":259400745_3" function="internal">
        <lane id=":259400745_3_0" index="0" disallow="tram rail_urban rail rail_electric rail_fast ship" speed="7.95" length="14.31" shape="318.08,69.08 321.82,67.84 324.22,65.71 325.30,62.68 325.04,58.75"/>
    </edge>
    <edge id=":259400745_4" function="internal">
        <lane id=":259400745_4_0" index="0" disallow="tram rail_urban rail rail_electric rail_fast ship" speed="6.44" length="9.03" shape="321.91,59.41 322.07,61.89 321.39,63.80 319.87,65.15 317.51,65.93"/>
    </edge>
    <edge id=":259400745_5" function="internal">
        <lane id=":259400745_5_0" index="0" disallow="tram rail_urban rail rail_electric rail_fast ship" speed="8.16" length="14.21" shape="321.91,59.41 323.23,63.10 325.39,65.55 328.37,66.75 332.18,66.70"/>
    </edge>
    <edge id=":259400771_0" function="internal">
        <lane id=":259400771_0_0" index="0" disallow="tram rail_urban rail rail_electric rail_fast ship" speed="13.89" length="12.34" shape="465.96,173.10 467.69,170.24 469.13,167.77 470.73,165.44 472.97,162.99"/>
    </edge>
    <edge id=":259400771_1" function="internal">
        <lane id=":259400771_1_0" index="0" disallow="tram rail_urban rail rail_electric rail_fast ship" speed="13.89" length="12.38" shape="463.22,170.60 465.94,168.66 468.26,166.99 470.49,165.23 472.97,162.99"/>
    </edge>
    <edge id=":259400773_0" function="internal">
        <lane id=":259400773_0_0" index="0" disallow="tram rail_urban rail rail_electric rail_fast ship" speed="9.64" length="8.15" shape="469.54,206.03 467.46,205.08 466.35,203.89 465.58,202.28 464.54,200.07"/>
    </edge>
    <edge id=":259400773_1" function="internal">
        <lane id=":259400773_1_0" index="0" disallow="tram rail_urban rail rail_electric rail_fast ship" speed="16.67" length="8.26" shape="469.54,206.03 461.85,203.24"/>
        <lane id=":259400773_1_1" index="1" disallow="tram rail_urban rail rail_electric rail_fast ship" speed="16.67" length="8.26" shape="468.57,209.08 460.81,206.27"/>
        <lane id=":259400773_1_2" index="2" disallow="tram rail_urban rail rail_electric rail_fast ship" speed="16.67" length="8.26" shape="467.61,212.13 459.77,209.29"/>
    </edge>
    <edge id=":259400773_4" function="internal">
        <lane id=":259400773_4_0" index="0" allow="bus bicycle" speed="3.65" length="1.44" shape="467.61,212.13 466.22,212.53"/>
    </edge>
    <edge id=":259400773_8" function="internal">
        <lane id=":259400773_8_0" index="0" allow="bus bicycle" speed="3.65" length="3.23" shape="466.22,212.53 465.60,213.17 465.73,214.05 466.64,215.18"/>
    </edge>
    <edge id=":259400773_5" function="internal">
        <lane id=":259400773_5_0" index="0" allow="bus bicycle" speed="16.67" length="8.41" shape="458.72,212.32 466.64,215.18"/>
    </edge>
    <edge id=":259400773_6" function="internal">
        <lane id=":259400773_6_0" index="0" allow="bus bicycle" speed="7.83" length="4.64" shape="458.72,212.32 463.28,213.21"/>
    </edge>
    <edge id=":259400773_7" function="internal">
        <lane id=":259400773_7_0" index="0" allow="bus bicycle" speed="3.65" length="1.44" shape="458.72,212.32 460.12,211.95"/>
    </edge>
    <edge id=":259400773_9" function="internal">
        <lane id=":259400773_9_0" index="0" allow="bus bicycle" speed="7.83" length="17.43" shape="463.28,213.21 464.81,213.51 467.80,211.87 467.71,207.39 464.54,200.07"/>
    </edge>
    <edge id=":259400773_10" function="internal">
        <lane id=":259400773_10_0" index="0" allow="bus bicycle" speed="3.65" length="3.23" shape="460.12,211.95 460.76,211.33 460.64,210.44 459.77,209.29"/>
    </edge>
    <edge id=":259400947_0" function="internal">
        <lane id=":259400947_0_0" index="0" disallow="tram rail_urban rail rail_electric rail_fast ship" speed="5.87" length="8.57" shape="492.67,102.16 490.80,102.28 489.56,103.35 488.96,105.36 489.00,108.32"/>
    </edge>
    <edge id=":259400947_1" function="internal">
        <lane id=":259400947_1_0" index="0" disallow="tram rail_urban rail rail_electric rail_fast ship" speed="13.89" length="9.62" shape="488.00,98.75 489.00,108.32"/>
    </edge>
    <edge id=":259400947_2" function="internal">
        <lane id=":259400947_2_0" index="0" disallow="tram rail_urban rail rail_electric rail_fast ship" speed="6.95" length="8.36" shape="488.00,98.75 488.50,101.41 489.36,103.40 490.58,104.70 492.17,105.32"/>
    </edge>
    <edge id=":3925335607_0" function="internal">
        <lane id=":3925335607_0_0" index="0" allow="bus bicycle" speed="2.68" length="1.27" shape="194.86,182.06 195.29,182.06 195.44,182.14 195.30,182.29 194.89,182.51"/>
    </edge>
    <edge id=":3925335607_1" function="internal">
        <lane id=":3925335607_1_0" index="0" allow="bus bicycle" speed="16.67" length="7.62" shape="194.86,182.06 187.24,182.43"/>
    </edge>
    <edge id=":3925335607_2" function="internal">
        <lane id=":3925335607_2_0" index="0" allow="bus bicycle" speed="3.65" length="1.44" shape="194.86,182.06 193.71,182.94"/>
    </edge>
    <edge id=":3925335607_9" function="internal">
        <lane id=":3925335607_9_0" index="0" allow="bus bicycle" speed="3.65" length="3.23" shape="193.71,182.94 193.37,183.76 193.82,184.53 195.07,185.25"/>
    </edge>
    <edge id=":3925335607_3" function="internal">
        <lane id=":3925335607_3_0" index="0" disallow="tram rail_urban rail rail_electric rail_fast ship" speed="16.67" length="7.84" shape="187.74,195.22 195.71,194.83"/>
        <lane id=":3925335607_3_1" index="1" disallow="tram rail_urban rail rail_electric rail_fast ship" speed="16.67" length="7.84" shape="187.62,192.02 195.49,191.64"/>
        <lane id=":3925335607_3_2" index="2" disallow="tram rail_urban rail rail_electric rail_fast ship" speed="16.67" length="7.84" shape="187.49,188.82 195.28,188.45"/>
        <lane id=":3925335607_3_3" index="3" disallow="tram rail_urban rail rail_electric rail_fast ship" speed="16.67" length="7.84" shape="187.37,185.62 195.07,185.25"/>
    </edge>
    <edge id=":3925335607_7" function="internal">
        <lane id=":3925335607_7_0" index="0" disallow="tram rail_urban rail rail_electric rail_fast ship" speed="15.28" length="3.72" shape="187.37,185.62 189.74,185.31 190.96,184.78"/>
    </edge>
    <edge id=":3925335607_8" function="internal">
        <lane id=":3925335607_8_0" index="0" allow="bus bicycle" speed="3.65" length="1.44" shape="187.37,185.62 188.54,184.78"/>
    </edge>
    <edge id=":3925335607_10" function="internal">
        <lane id=":3925335607_10_0" index="0" disallow="tram rail_urban rail rail_electric rail_fast ship" speed="15.28" length="4.55" shape="190.96,184.78 191.27,184.65 192.73,183.69 194.89,182.51"/>
    </edge>
    <edge id=":3925335607_11" function="internal">
        <lane id=":3925335607_11_0" index="0" allow="bus bicycle" speed="3.65" length="3.23" shape="188.54,184.78 188.91,183.96 188.47,183.18 187.24,182.43"/>
    </edge>
    <edge id=":3925335612_0" function="internal">
        <lane id=":3925335612_0_0" index="0" disallow="tram rail_urban rail rail_electric rail_fast ship" speed="16.67" length="13.97" shape="215.67,133.78 211.97,132.09 209.75,130.25 207.53,128.40 203.85,126.64"/>
        <lane id=":3925335612_0_1" index="1" disallow="tram rail_urban rail rail_electric rail_fast ship" speed="16.67" length="13.97" shape="214.70,136.83 210.98,135.13 208.75,133.29 206.52,131.43 202.83,129.67"/>
        <lane id=":3925335612_0_2" index="2" disallow="tram rail_urban rail rail_electric rail_fast ship" speed="16.67" length="13.97" shape="213.72,139.88 209.99,138.18 207.75,136.33 205.51,134.47 201.80,132.70"/>
    </edge>
    <edge id=":3925335612_3" function="internal">
        <lane id=":3925335612_3_0" index="0" allow="bus bicycle" speed="3.65" length="1.44" shape="213.72,139.88 212.34,140.27"/>
    </edge>
    <edge id=":3925335612_9" function="internal">
        <lane id=":3925335612_9_0" index="0" allow="bus bicycle" speed="3.65" length="3.23" shape="212.34,140.27 211.71,140.91 211.85,141.80 212.75,142.93"/>
    </edge>
    <edge id=":3925335612_4" function="internal">
        <lane id=":3925335612_4_0" index="0" allow="bus bicycle" speed="5.51" length="9.59" shape="209.22,148.12 208.24,145.04 208.50,143.15 210.00,142.44 212.75,142.93"/>
    </edge>
    <edge id=":3925335612_5" function="internal">
        <lane id=":3925335612_5_0" index="0" disallow="tram rail_urban rail rail_electric rail_fast ship" speed="13.01" length="16.19" shape="209.22,148.12 208.03,145.37 205.72,140.19 203.30,135.12 201.80,132.70"/>
        <lane id=":3925335612_5_1" index="1" disallow="tram rail_urban rail rail_electric rail_fast ship" speed="12.29" length="16.19" shape="209.22,148.12 206.87,143.16 204.67,139.44 202.64,136.96 200.77,135.73"/>
    </edge>
    <edge id=":3925335612_7" function="internal">
        <lane id=":3925335612_7_0" index="0" allow="bus bicycle" speed="16.67" length="13.65" shape="199.75,138.77 212.75,142.93"/>
    </edge>
    <edge id=":3925335612_8" function="internal">
        <lane id=":3925335612_8_0" index="0" allow="bus bicycle" speed="3.65" length="2.34" shape="199.75,138.77 201.14,138.39 201.78,137.76"/>
    </edge>
    <edge id=":3925335612_10" function="internal">
        <lane id=":3925335612_10_0" index="0" allow="bus bicycle" speed="3.65" length="2.34" shape="201.78,137.76 201.65,136.88 200.77,135.73"/>
    </edge>
    <edge id=":409375010_0" function="internal">
        <lane id=":409375010_0_0" index="0" allow="bus bicycle" speed="16.67" length="8.85" shape="397.92,212.37 389.77,208.91"/>
    </edge>
    <edge id=":409375010_1" function="internal">
        <lane id=":409375010_1_0" index="0" allow="bus bicycle" speed="7.80" length="4.45" shape="397.92,212.37 393.60,211.31"/>
    </edge>
    <edge id=":409375010_2" function="internal">