<?xml version="1.0" encoding="UTF-8"?>

<!-- generated on 2023-07-17 15:48:30 by Eclipse SUMO netconvert Version 1.17.0
<configuration xmlns:xsi="http://www.w3.org/2001/XMLSchema-instance" xsi:noNamespaceSchemaLocation="http://sumo.dlr.de/xsd/netconvertConfiguration.xsd">

    <input>
        <sumo-net-file value="osm.net.xml.gz"/>
    </input>

    <output>
        <output-file value="osm.net.xml"/>
        <output.street-names value="true"/>
    </output>

    <processing>
        <geometry.min-radius.fix.railways value="false"/>
        <geometry.max-grade.fix value="false"/>
        <offset.disable-normalization value="true"/>
        <lefthand value="1"/>
    </processing>

    <junctions>
        <no-turnarounds value="true"/>
        <junctions.corner-detail value="5"/>
        <junctions.limit-turn-speed value="5.50"/>
        <rectangular-lane-cut value="0"/>
    </junctions>

    <pedestrian>
        <walkingareas value="0"/>
    </pedestrian>

</configuration>
-->

<net version="1.16" junctionCornerDetail="5" lefthand="true" limitTurnSpeed="5.50" xmlns:xsi="http://www.w3.org/2001/XMLSchema-instance" xsi:noNamespaceSchemaLocation="http://sumo.dlr.de/xsd/net_file.xsd">

    <location netOffset="-368816.65,-144038.71" convBoundary="0.00,0.00,408.10,396.22" origBoundary="103.820869,1.302883,103.824536,1.306468" projParameter="+proj=utm +zone=48 +ellps=WGS84 +datum=WGS84 +units=m +no_defs"/>

    <type id="highway.bridleway" priority="1" numLanes="1" speed="2.78" allow="pedestrian" oneway="1" width="2.00"/>
    <type id="highway.bus_guideway" priority="1" numLanes="1" speed="27.78" allow="bus" oneway="1"/>
    <type id="highway.cycleway" priority="1" numLanes="1" speed="5.56" allow="bicycle" oneway="0" width="1.00"/>
    <type id="highway.footway" priority="1" numLanes="1" speed="2.78" allow="pedestrian" oneway="1" width="2.00"/>
    <type id="highway.ford" priority="1" numLanes="1" speed="2.78" allow="army" oneway="0"/>
    <type id="highway.living_street" priority="2" numLanes="1" speed="2.78" disallow="tram rail_urban rail rail_electric rail_fast ship" oneway="0"/>
    <type id="highway.motorway" priority="14" numLanes="2" speed="39.44" allow="private emergency authority army vip passenger hov taxi bus coach delivery truck trailer motorcycle evehicle custom1 custom2" oneway="1"/>
    <type id="highway.motorway_link" priority="9" numLanes="1" speed="22.22" allow="private emergency authority army vip passenger hov taxi bus coach delivery truck trailer motorcycle evehicle custom1 custom2" oneway="1"/>
    <type id="highway.path" priority="1" numLanes="1" speed="5.56" allow="pedestrian bicycle" oneway="0" width="2.00"/>
    <type id="highway.pedestrian" priority="1" numLanes="1" speed="2.78" allow="pedestrian" oneway="1" width="2.00"/>
    <type id="highway.primary" priority="12" numLanes="2" speed="27.78" disallow="tram rail_urban rail rail_electric rail_fast ship" oneway="0"/>
    <type id="highway.primary_link" priority="7" numLanes="1" speed="22.22" disallow="tram rail_urban rail rail_electric rail_fast ship" oneway="0"/>
    <type id="highway.raceway" priority="15" numLanes="2" speed="83.33" allow="vip" oneway="0"/>
    <type id="highway.residential" priority="3" numLanes="1" speed="13.89" disallow="tram rail_urban rail rail_electric rail_fast ship" oneway="0"/>
    <type id="highway.secondary" priority="11" numLanes="1" speed="27.78" disallow="tram rail_urban rail rail_electric rail_fast ship" oneway="0"/>
    <type id="highway.secondary_link" priority="6" numLanes="1" speed="22.22" disallow="tram rail_urban rail rail_electric rail_fast ship" oneway="0"/>
    <type id="highway.service" priority="1" numLanes="1" speed="5.56" allow="pedestrian delivery bicycle" oneway="0"/>
    <type id="highway.stairs" priority="1" numLanes="1" speed="1.39" allow="pedestrian" oneway="1" width="2.00"/>
    <type id="highway.step" priority="1" numLanes="1" speed="1.39" allow="pedestrian" oneway="1" width="2.00"/>
    <type id="highway.steps" priority="1" numLanes="1" speed="1.39" allow="pedestrian" oneway="1" width="2.00"/>
    <type id="highway.tertiary" priority="10" numLanes="1" speed="22.22" disallow="tram rail_urban rail rail_electric rail_fast ship" oneway="0"/>
    <type id="highway.tertiary_link" priority="5" numLanes="1" speed="22.22" disallow="tram rail_urban rail rail_electric rail_fast ship" oneway="0"/>
    <type id="highway.track" priority="1" numLanes="1" speed="5.56" allow="pedestrian motorcycle moped bicycle" oneway="0"/>
    <type id="highway.trunk" priority="13" numLanes="2" speed="27.78" disallow="pedestrian bicycle tram rail_urban rail rail_electric rail_fast ship" oneway="0"/>
    <type id="highway.trunk_link" priority="8" numLanes="1" speed="22.22" disallow="pedestrian bicycle tram rail_urban rail rail_electric rail_fast ship" oneway="0"/>
    <type id="highway.unclassified" priority="4" numLanes="1" speed="13.89" disallow="tram rail_urban rail rail_electric rail_fast ship" oneway="0"/>
    <type id="highway.unsurfaced" priority="1" numLanes="1" speed="8.33" disallow="tram rail_urban rail rail_electric rail_fast ship" oneway="0"/>
    <type id="railway.highspeed" priority="21" numLanes="1" speed="69.44" allow="rail_fast" oneway="1"/>
    <type id="railway.light_rail" priority="19" numLanes="1" speed="27.78" allow="rail_urban" oneway="1"/>
    <type id="railway.preserved" priority="16" numLanes="1" speed="27.78" allow="rail" oneway="1"/>
    <type id="railway.rail" priority="20" numLanes="1" speed="44.44" allow="rail" oneway="1"/>
    <type id="railway.subway" priority="18" numLanes="1" speed="27.78" allow="rail_urban" oneway="1"/>
    <type id="railway.tram" priority="17" numLanes="1" speed="13.89" allow="tram" oneway="1"/>

    <edge id=":1548409704_0" function="internal">
        <lane id=":1548409704_0_0" index="0" disallow="tram rail_urban rail rail_electric rail_fast ship" speed="10.70" length="5.53" shape="131.47,135.63 130.12,134.69 129.20,133.99 128.49,133.13 127.77,131.68"/>
    </edge>
    <edge id=":1548409704_1" function="internal">
        <lane id=":1548409704_1_0" index="0" disallow="tram rail_urban rail rail_electric rail_fast ship" speed="13.89" length="5.24" shape="124.82,132.93 125.16,134.26 125.01,135.22 124.70,136.22 124.56,137.65"/>
        <lane id=":1548409704_1_1" index="1" disallow="tram rail_urban rail rail_electric rail_fast ship" speed="13.89" length="5.24" shape="124.82,132.93 125.72,134.34 126.67,135.17 127.42,136.05 127.76,137.57"/>
    </edge>
    <edge id=":1548409723_0" function="internal">
        <lane id=":1548409723_0_0" index="0" disallow="tram rail_urban rail rail_electric rail_fast ship" speed="13.89" length="23.66" shape="197.69,205.75 193.25,205.18 187.80,203.79 181.90,201.20 176.11,197.05"/>
    </edge>
    <edge id=":1548409723_1" function="internal">
        <lane id=":1548409723_1_0" index="0" disallow="tram rail_urban rail rail_electric rail_fast ship" speed="13.89" length="23.62" shape="195.28,210.47 189.75,207.08 185.29,204.29 181.03,201.24 176.11,197.05"/>
        <lane id=":1548409723_1_1" index="1" disallow="tram rail_urban rail rail_electric rail_fast ship" speed="13.89" length="23.62" shape="193.39,213.06 187.82,209.63 183.27,206.77 178.92,203.64 173.95,199.42"/>
    </edge>
    <edge id=":1548409763_0" function="internal">
        <lane id=":1548409763_0_0" index="0" disallow="tram rail_urban rail rail_electric rail_fast ship" speed="13.89" length="9.39" shape="152.02,175.92 150.74,173.61 150.65,171.65 150.70,169.60 149.87,166.99"/>
    </edge>
    <edge id=":1625964492_0" function="internal">
        <lane id=":1625964492_0_0" index="0" disallow="tram rail_urban rail rail_electric rail_fast ship" speed="3.65" length="4.67" shape="301.44,361.88 301.56,363.32 302.06,364.06 302.95,364.10 304.24,363.44"/>
    </edge>
    <edge id=":1695862616_0" function="internal">
        <lane id=":1695862616_0_0" index="0" disallow="tram rail_urban rail rail_electric rail_fast ship" speed="11.49" length="13.69" shape="174.52,242.24 173.30,245.82 171.73,248.75 169.81,251.04 167.54,252.68"/>
        <lane id=":1695862616_0_1" index="1" disallow="tram rail_urban rail rail_electric rail_fast ship" speed="12.16" length="13.69" shape="174.52,242.24 172.97,247.59 171.54,251.58 170.24,254.22 169.05,255.49"/>
    </edge>
    <edge id=":1695862616_2" function="internal">
        <lane id=":1695862616_2_0" index="0" disallow="tram rail_urban rail rail_electric rail_fast ship" speed="16.67" length="13.22" shape="177.70,245.02 174.67,247.29 172.74,249.05 170.75,250.71 167.54,252.68"/>
        <lane id=":1695862616_2_1" index="1" disallow="tram rail_urban rail rail_electric rail_fast ship" speed="16.67" length="13.22" shape="179.49,247.68 176.38,250.00 174.39,251.79 172.35,253.48 169.05,255.49"/>
        <lane id=":1695862616_2_2" index="2" disallow="tram rail_urban rail rail_electric rail_fast ship" speed="16.67" length="13.22" shape="181.27,250.34 178.09,252.71 176.05,254.54 173.94,256.26 170.57,258.31"/>
        <lane id=":1695862616_2_3" index="3" disallow="tram rail_urban rail rail_electric rail_fast ship" speed="16.67" length="13.22" shape="183.06,252.99 179.79,255.42 177.70,257.28 175.54,259.03 172.08,261.13"/>
    </edge>
    <edge id=":172415528_0" function="internal">
        <lane id=":172415528_0_0" index="0" disallow="tram rail_urban rail rail_electric rail_fast ship" speed="13.89" length="7.72" shape="305.93,268.00 308.25,268.57 309.66,269.71 311.06,270.89 313.38,271.55"/>
        <lane id=":172415528_0_1" index="1" disallow="tram rail_urban rail rail_electric rail_fast ship" speed="13.89" length="7.72" shape="306.90,264.83 309.01,265.39 310.25,266.54 311.49,267.71 313.60,268.36"/>
        <lane id=":172415528_0_2" index="2" disallow="tram rail_urban rail rail_electric rail_fast ship" speed="13.89" length="7.72" shape="306.90,264.83 313.82,265.17"/>
    </edge>
    <edge id=":172415528_3" function="internal">
        <lane id=":172415528_3_0" index="0" disallow="tram rail_urban rail rail_electric rail_fast ship" speed="13.89" length="7.17" shape="305.80,268.40 308.04,268.86 309.64,268.73 311.26,268.42 313.60,268.36"/>
        <lane id=":172415528_3_1" index="1" disallow="tram rail_urban rail rail_electric rail_fast ship" speed="13.89" length="7.17" shape="306.74,265.34 308.77,265.74 310.22,265.57 311.70,265.24 313.82,265.17"/>
        <lane id=":172415528_3_2" index="2" disallow="tram rail_urban rail rail_electric rail_fast ship" speed="13.89" length="7.17" shape="307.68,262.28 309.51,262.62 310.81,262.41 312.14,262.07 314.05,261.97"/>
    </edge>
    <edge id=":172424249_0" function="internal">
        <lane id=":172424249_0_0" index="0" disallow="tram rail_urban rail rail_electric rail_fast ship" speed="11.11" length="8.12" shape="273.60,184.28 275.13,182.42 276.46,181.38 277.77,180.32 279.23,178.42"/>
        <lane id=":172424249_0_1" index="1" disallow="tram rail_urban rail rail_electric rail_fast ship" speed="11.11" length="8.12" shape="270.93,182.52 272.44,180.69 273.76,179.66 275.06,178.62 276.50,176.75"/>
    </edge>
    <edge id=":172426644_0" function="internal">
        <lane id=":172426644_0_0" index="0" disallow="tram rail_urban rail rail_electric rail_fast ship" speed="13.89" length="11.07" shape="171.80,214.98 173.85,217.44 174.64,219.61 174.94,221.99 175.51,225.09"/>
    </edge>
    <edge id=":172426644_1" function="internal">
        <lane id=":172426644_1_0" index="0" disallow="tram rail_urban rail rail_electric rail_fast ship" speed="13.89" length="9.91" shape="171.80,214.98 173.84,217.31 175.02,219.15 176.33,220.82 178.78,222.60"/>
        <lane id=":172426644_1_1" index="1" disallow="tram rail_urban rail rail_electric rail_fast ship" speed="13.89" length="9.91" shape="171.80,214.98 174.05,216.82 175.83,217.75 177.74,218.51 180.38,219.84"/>
        <lane id=":172426644_1_2" index="2" disallow="tram rail_urban rail rail_electric rail_fast ship" speed="13.89" length="9.91" shape="174.00,212.66 176.09,214.35 177.75,215.18 179.54,215.86 181.99,217.07"/>
        <lane id=":172426644_1_3" index="3" disallow="tram rail_urban rail rail_electric rail_fast ship" speed="13.89" length="9.91" shape="174.00,212.66 176.40,213.98 178.54,213.82 180.81,213.48 183.59,214.30"/>
    </edge>
    <edge id=":1763837392_0" function="internal">
        <lane id=":1763837392_0_0" index="0" disallow="tram rail_urban rail rail_electric rail_fast ship" speed="13.89" length="28.64" shape="248.65,263.03 255.91,263.14 262.87,263.21 269.81,263.56 276.99,264.49"/>
        <lane id=":1763837392_0_1" index="1" disallow="tram rail_urban rail rail_electric rail_fast ship" speed="13.89" length="28.64" shape="248.75,259.83 256.08,259.95 263.20,260.04 270.30,260.40 277.55,261.34"/>
    </edge>
    <edge id=":1763837392_2" function="internal">
        <lane id=":1763837392_2_0" index="0" disallow="tram rail_urban rail rail_electric rail_fast ship" speed="13.89" length="28.74" shape="249.39,255.59 254.42,256.88 261.57,258.37 269.67,259.91 277.55,261.34"/>
    </edge>
    <edge id=":246500044_0" function="internal">
        <lane id=":246500044_0_0" index="0" disallow="tram rail_urban rail rail_electric rail_fast ship" speed="12.50" length="11.65" shape="231.67,199.44 229.20,201.72 226.87,202.57 224.30,202.83 221.11,203.35"/>
    </edge>
    <edge id=":246500044_1" function="internal">
        <lane id=":246500044_1_0" index="0" disallow="tram rail_urban rail rail_electric rail_fast ship" speed="11.11" length="12.30" shape="231.67,199.44 229.34,201.90 227.46,203.28 225.47,204.58 222.85,206.76"/>
        <lane id=":246500044_1_1" index="1" disallow="tram rail_urban rail rail_electric rail_fast ship" speed="11.11" length="12.30" shape="234.14,201.48 231.74,204.02 229.80,205.47 227.76,206.82 225.05,209.08"/>
        <lane id=":246500044_1_2" index="2" disallow="tram rail_urban rail rail_electric rail_fast ship" speed="11.11" length="12.30" shape="236.61,203.51 234.13,206.15 232.14,207.66 230.04,209.07 227.24,211.41"/>
        <lane id=":246500044_1_3" index="3" disallow="tram rail_urban rail rail_electric rail_fast ship" speed="11.11" length="12.30" shape="239.08,205.55 236.53,208.28 234.48,209.85 232.32,211.31 229.44,213.74"/>
        <lane id=":246500044_1_4" index="4" disallow="tram rail_urban rail rail_electric rail_fast ship" speed="11.11" length="12.30" shape="241.55,207.58 238.92,210.40 236.82,212.03 234.60,213.56 231.63,216.07"/>
    </edge>
    <edge id=":246500052_0" function="internal">
        <lane id=":246500052_0_0" index="0" disallow="tram rail_urban rail rail_electric rail_fast ship" speed="11.11" length="8.18" shape="263.42,165.34 261.84,166.84 260.21,167.26 258.52,167.63 256.75,169.00"/>
        <lane id=":246500052_0_1" index="1" disallow="tram rail_urban rail rail_electric rail_fast ship" speed="11.11" length="8.18" shape="266.09,167.10 264.45,168.68 262.78,169.16 261.05,169.59 259.22,171.03"/>
        <lane id=":246500052_0_2" index="2" disallow="tram rail_urban rail rail_electric rail_fast ship" speed="11.11" length="8.18" shape="268.77,168.86 267.07,170.52 265.36,171.06 263.58,171.55 261.69,173.07"/>
        <lane id=":246500052_0_3" index="3" disallow="tram rail_urban rail rail_electric rail_fast ship" speed="11.11" length="8.18" shape="268.77,168.86 267.49,170.78 266.59,172.07 265.62,173.32 264.16,175.10"/>
        <lane id=":246500052_0_4" index="4" disallow="tram rail_urban rail rail_electric rail_fast ship" speed="11.11" length="8.18" shape="268.77,168.86 267.82,171.19 267.83,173.10 267.78,174.95 266.63,177.14"/>
    </edge>
    <edge id=":26777521_0" function="internal">
        <lane id=":26777521_0_0" index="0" disallow="tram rail_urban rail rail_electric rail_fast ship" speed="6.52" length="8.56" shape="307.57,120.66 305.38,119.91 303.89,118.63 303.13,116.83 303.08,114.50"/>
    </edge>
    <edge id=":26777521_1" function="internal">
        <lane id=":26777521_1_0" index="0" disallow="tram rail_urban rail rail_electric rail_fast ship" speed="6.88" length="8.80" shape="299.87,127.49 301.00,125.49 302.56,124.22 304.55,123.65 306.96,123.80"/>
    </edge>
    <edge id=":26777521_2" function="internal">
        <lane id=":26777521_2_0" index="0" disallow="tram rail_urban rail rail_electric rail_fast ship" speed="11.11" length="13.03" shape="299.87,127.49 301.29,123.77 302.09,121.15 302.59,118.46 303.08,114.50"/>
        <lane id=":26777521_2_1" index="1" disallow="tram rail_urban rail rail_electric rail_fast ship" speed="11.11" length="13.03" shape="296.89,126.33 298.22,122.83 298.97,120.37 299.44,117.84 299.90,114.13"/>
    </edge>
    <edge id=":5231531318_0" function="internal">
        <lane id=":5231531318_0_0" index="0" disallow="tram rail_urban rail rail_electric rail_fast ship" speed="13.89" length="14.22" shape="232.01,245.27 236.07,247.08 238.81,249.05 241.11,251.04 243.89,252.91"/>
    </edge>
    <edge id=":5231531318_1" function="internal">
        <lane id=":5231531318_1_0" index="0" disallow="tram rail_urban rail rail_electric rail_fast ship" speed="13.89" length="14.27" shape="232.01,245.27 245.97,248.94"/>
        <lane id=":5231531318_1_1" index="1" disallow="tram rail_urban rail rail_electric rail_fast ship" speed="13.89" length="14.27" shape="233.02,242.23 246.82,245.86"/>
        <lane id=":5231531318_1_2" index="2" disallow="tram rail_urban rail rail_electric rail_fast ship" speed="13.89" length="14.27" shape="234.03,239.20 247.68,242.78"/>
    </edge>
    <edge id=":602215548_0" function="internal">
        <lane id=":602215548_0_0" index="0" disallow="tram rail_urban rail rail_electric rail_fast ship" speed="15.28" length="3.29" shape="191.13,272.17 191.97,271.67 192.56,271.35 193.17,271.06 194.06,270.68"/>
        <lane id=":602215548_0_1" index="1" disallow="tram rail_urban rail rail_electric rail_fast ship" speed="15.28" length="3.88" shape="189.49,269.42 190.48,268.83 191.17,268.46 191.89,268.13 192.95,267.68"/>
    </edge>
    <edge id=":602215548_2" function="internal">
        <lane id=":602215548_2_0" index="0" disallow="tram rail_urban rail rail_electric rail_fast ship" speed="16.67" length="4.96" shape="187.84,266.68 189.18,265.88 190.10,265.33 190.99,264.74 192.26,263.84"/>
        <lane id=":602215548_2_1" index="1" disallow="tram rail_urban rail rail_electric rail_fast ship" speed="16.67" length="4.96" shape="186.20,263.93 187.47,263.18 188.33,262.66 189.17,262.11 190.37,261.25"/>
        <lane id=":602215548_2_2" index="2" disallow="tram rail_urban rail rail_electric rail_fast ship" speed="16.67" length="4.96" shape="184.55,261.19 185.75,260.48 186.56,259.99 187.36,259.47 188.49,258.66"/>
    </edge>
    <edge id=":602223024_0" function="internal">
        <lane id=":602223024_0_0" index="0" disallow="tram rail_urban rail rail_electric rail_fast ship" speed="3.65" length="4.67" shape="150.14,394.88 149.57,396.20 149.67,397.09 150.44,397.54 151.88,397.56"/>
    </edge>
    <edge id=":6136194024_0" function="internal">
        <lane id=":6136194024_0_0" index="0" disallow="tram rail_urban rail rail_electric rail_fast ship" speed="6.25" length="9.05" shape="297.52,273.54 297.64,271.02 298.55,269.24 300.26,268.20 302.77,267.91"/>
    </edge>
    <edge id=":6136194024_1" function="internal">
        <lane id=":6136194024_1_0" index="0" disallow="tram rail_urban rail rail_electric rail_fast ship" speed="7.61" length="10.07" shape="288.58,266.55 290.86,267.35 292.58,268.83 293.74,271.00 294.34,273.85"/>
    </edge>
    <edge id=":6136194024_2" function="internal">
        <lane id=":6136194024_2_0" index="0" disallow="tram rail_urban rail rail_electric rail_fast ship" speed="13.89" length="14.04" shape="288.58,266.55 292.75,267.26 295.63,267.63 298.53,267.79 302.77,267.91"/>
        <lane id=":6136194024_2_1" index="1" disallow="tram rail_urban rail rail_electric rail_fast ship" speed="13.89" length="14.04" shape="289.14,263.40 293.17,264.09 295.96,264.44 298.76,264.60 302.86,264.72"/>
    </edge>
    <edge id=":6136236413_0" function="internal">
        <lane id=":6136236413_0_0" index="0" disallow="tram rail_urban rail rail_electric rail_fast ship" speed="16.67" length="8.00" shape="137.48,302.12 139.77,301.23 141.48,300.94 143.16,300.61 145.38,299.58"/>
        <lane id=":6136236413_0_1" index="1" disallow="tram rail_urban rail rail_electric rail_fast ship" speed="16.67" length="8.00" shape="137.48,302.12 139.50,300.80 140.66,299.57 141.79,298.28 143.73,296.83"/>
        <lane id=":6136236413_0_2" index="2" disallow="tram rail_urban rail rail_electric rail_fast ship" speed="16.67" length="8.00" shape="136.03,299.26 137.99,297.98 139.11,296.77 140.20,295.51 142.09,294.09"/>
        <lane id=":6136236413_0_3" index="3" disallow="tram rail_urban rail rail_electric rail_fast ship" speed="16.67" length="8.00" shape="134.58,296.41 136.48,295.16 137.56,293.96 138.61,292.73 140.44,291.34"/>
        <lane id=":6136236413_0_4" index="4" disallow="tram rail_urban rail rail_electric rail_fast ship" speed="16.67" length="8.00" shape="133.13,293.56 134.98,292.33 136.01,291.16 137.02,289.95 138.80,288.60"/>
    </edge>
    <edge id=":cluster_1548409730_172415495_172415514_5231531319_0" function="internal">
        <lane id=":cluster_1548409730_172415495_172415514_5231531319_0_0" index="0" disallow="tram rail_urban rail rail_electric rail_fast ship" speed="13.89" length="37.00" shape="217.81,211.51 210.08,219.26 204.95,224.80 199.47,229.88 190.67,236.31"/>
        <lane id=":cluster_1548409730_172415495_172415514_5231531319_0_1" index="1" disallow="tram rail_urban rail rail_electric rail_fast ship" speed="13.89" length="37.00" shape="219.69,214.13 211.93,221.90 206.78,227.44 201.28,232.53 192.46,238.96"/>
        <lane id=":cluster_1548409730_172415495_172415514_5231531319_0_2" index="2" disallow="tram rail_urban rail rail_electric rail_fast ship" speed="13.89" length="37.00" shape="221.58,216.76 213.79,224.54 208.62,230.08 203.09,235.17 194.24,241.62"/>
        <lane id=":cluster_1548409730_172415495_172415514_5231531319_0_3" index="3" disallow="tram rail_urban rail rail_electric rail_fast ship" speed="13.89" length="37.00" shape="223.46,219.38 215.65,227.18 210.46,232.72 204.91,237.81 196.03,244.27"/>
    </edge>
    <edge id=":cluster_1548409730_172415495_172415514_5231531319_4" function="internal">
        <lane id=":cluster_1548409730_172415495_172415514_5231531319_4_0" index="0" disallow="tram rail_urban rail rail_electric rail_fast ship" speed="9.39" length="9.67" shape="225.34,222.01 221.25,228.10 221.39,230.43"/>
        <lane id=":cluster_1548409730_172415495_172415514_5231531319_4_1" index="1" disallow="tram rail_urban rail rail_electric rail_fast ship" speed="8.88" length="8.58" shape="225.34,222.01 221.99,227.30 222.44,229.57"/>
    </edge>
    <edge id=":cluster_1548409730_172415495_172415514_5231531319_6" function="internal">
        <lane id=":cluster_1548409730_172415495_172415514_5231531319_6_0" index="0" disallow="tram rail_urban rail rail_electric rail_fast ship" speed="4.95" length="6.68" shape="225.34,222.01 224.25,224.90 224.55,226.79 226.02,227.57"/>
    </edge>
    <edge id=":cluster_1548409730_172415495_172415514_5231531319_19" function="internal">
        <lane id=":cluster_1548409730_172415495_172415514_5231531319_19_0" index="0" disallow="tram rail_urban rail rail_electric rail_fast ship" speed="9.39" length="17.75" shape="221.39,230.43 221.60,233.76 225.72,238.60 232.92,242.20"/>
    </edge>
    <edge id=":cluster_1548409730_172415495_172415514_5231531319_20" function="internal">
        <lane id=":cluster_1548409730_172415495_172415514_5231531319_20_0" index="0" disallow="tram rail_urban rail rail_electric rail_fast ship" speed="8.88" length="15.80" shape="222.44,229.57 222.94,232.06 227.24,236.09 233.94,239.17"/>
    </edge>
    <edge id=":cluster_1548409730_172415495_172415514_5231531319_21" function="internal">
        <lane id=":cluster_1548409730_172415495_172415514_5231531319_21_0" index="0" disallow="tram rail_urban rail rail_electric rail_fast ship" speed="4.95" length="3.34" shape="226.02,227.57 226.25,227.69 229.34,227.58"/>
    </edge>
    <edge id=":cluster_1548409730_172415495_172415514_5231531319_7" function="internal">
        <lane id=":cluster_1548409730_172415495_172415514_5231531319_7_0" index="0" disallow="tram rail_urban rail rail_electric rail_fast ship" speed="13.89" length="37.12" shape="203.63,255.55 233.07,232.78"/>
        <lane id=":cluster_1548409730_172415495_172415514_5231531319_7_1" index="1" disallow="tram rail_urban rail rail_electric rail_fast ship" speed="13.89" length="37.12" shape="201.84,252.90 231.20,230.18"/>
        <lane id=":cluster_1548409730_172415495_172415514_5231531319_7_2" index="2" disallow="tram rail_urban rail rail_electric rail_fast ship" speed="13.89" length="37.12" shape="200.05,250.24 229.34,227.58"/>
    </edge>
    <edge id=":cluster_1548409730_172415495_172415514_5231531319_10" function="internal">
        <lane id=":cluster_1548409730_172415495_172415514_5231531319_10_0" index="0" disallow="tram rail_urban rail rail_electric rail_fast ship" speed="12.39" length="19.20" shape="200.05,250.24 209.45,240.99 211.45,235.32"/>
        <lane id=":cluster_1548409730_172415495_172415514_5231531319_10_1" index="1" disallow="tram rail_urban rail rail_electric rail_fast ship" speed="11.94" length="17.15" shape="200.05,250.24 208.50,241.67 209.92,236.75"/>
    </edge>
    <edge id=":cluster_1548409730_172415495_172415514_5231531319_12" function="internal">
        <lane id=":cluster_1548409730_172415495_172415514_5231531319_12_0" index="0" disallow="tram rail_urban rail rail_electric rail_fast ship" speed="4.97" length="7.16" shape="200.05,250.24 201.28,247.24 201.02,245.25 199.36,244.31"/>
    </edge>
    <edge id=":cluster_1548409730_172415495_172415514_5231531319_22" function="internal">
        <lane id=":cluster_1548409730_172415495_172415514_5231531319_22_0" index="0" disallow="tram rail_urban rail rail_electric rail_fast ship" speed="12.39" length="26.61" shape="211.45,235.32 212.80,231.51 209.85,222.24 200.32,213.64"/>
    </edge>
    <edge id=":cluster_1548409730_172415495_172415514_5231531319_23" function="internal">
        <lane id=":cluster_1548409730_172415495_172415514_5231531319_23_0" index="0" disallow="tram rail_urban rail rail_electric rail_fast ship" speed="11.94" length="25.30" shape="209.92,236.75 211.03,232.89 207.72,224.32 198.63,216.35"/>
    </edge>
    <edge id=":cluster_1548409730_172415495_172415514_5231531319_24" function="internal">
        <lane id=":cluster_1548409730_172415495_172415514_5231531319_24_0" index="0" disallow="tram rail_urban rail rail_electric rail_fast ship" speed="4.97" length="3.34" shape="199.36,244.31 199.27,244.26 196.03,244.27"/>
    </edge>
    <edge id=":cluster_1548409730_172415495_172415514_5231531319_13" function="internal">
        <lane id=":cluster_1548409730_172415495_172415514_5231531319_13_0" index="0" disallow="tram rail_urban rail rail_electric rail_fast ship" speed="13.89" length="43.74" shape="190.48,229.39 202.25,235.43 212.35,239.29 221.87,242.16 231.91,245.24"/>
        <lane id=":cluster_1548409730_172415495_172415514_5231531319_13_1" index="1" disallow="tram rail_urban rail rail_electric rail_fast ship" speed="13.89" length="43.74" shape="192.18,226.67 203.84,232.66 213.70,236.41 222.99,239.18 232.92,242.20"/>
        <lane id=":cluster_1548409730_172415495_172415514_5231531319_13_2" index="2" disallow="tram rail_urban rail rail_electric rail_fast ship" speed="13.89" length="43.74" shape="193.87,223.96 205.43,229.90 215.06,233.54 224.11,236.19 233.94,239.17"/>
    </edge>
    <edge id=":cluster_1548409730_172415495_172415514_5231531319_16" function="internal">
        <lane id=":cluster_1548409730_172415495_172415514_5231531319_16_0" index="0" disallow="tram rail_urban rail rail_electric rail_fast ship" speed="12.50" length="38.16" shape="195.57,221.24 207.77,227.58 217.78,231.18 225.59,232.05 231.20,230.18"/>
        <lane id=":cluster_1548409730_172415495_172415514_5231531319_16_1" index="1" disallow="tram rail_urban rail rail_electric rail_fast ship" speed="12.50" length="35.97" shape="195.57,221.24 206.51,226.76 215.79,229.65 223.40,229.93 229.34,227.58"/>
    </edge>
    <edge id=":cluster_1548409730_172415495_172415514_5231531319_18" function="internal">
        <lane id=":cluster_1548409730_172415495_172415514_5231531319_18_0" index="0" disallow="tram rail_urban rail rail_electric rail_fast ship" speed="4.55" length="8.42" shape="195.57,221.24 198.17,221.16 199.54,220.32 199.70,218.72 198.63,216.35"/>
    </edge>

    <edge id="-480761558" from="6817454856" to="1548409704" name="Tanglin Road" priority="12" type="highway.primary" shape="0.00,0.00 40.75,20.43 60.14,31.25 78.07,44.13 84.48,51.39 90.60,58.21 95.38,63.84 98.37,69.91 105.38,84.70 112.42,99.55 126.01,131.63">
        <lane id="-480761558_0" index="0" disallow="tram rail_urban rail rail_electric rail_fast ship" speed="13.89" length="190.11" shape="-0.72,1.43 40.00,21.84 59.28,32.60 76.99,45.32 83.28,52.45 89.39,59.26 94.03,64.72 96.93,70.61 103.93,85.39 110.96,100.21 124.82,132.93">
            <param key="origId" value="480761558 727627498"/>
        </lane>
    </edge>
    <edge id="-633197836" from="1625964492" to="1625964482" name="Saint Martin&amp;apos;s Drive" priority="3" type="highway.residential" shape="302.84,362.66 304.30,360.05 322.54,337.61 347.97,322.53 365.08,319.00 405.95,327.36">
        <lane id="-633197836_0" index="0" disallow="tram rail_urban rail rail_electric rail_fast ship" speed="13.89" length="118.62" shape="304.24,363.44 305.63,360.95 323.60,338.84 348.56,324.04 365.08,320.63 405.63,328.93">
            <param key="origId" value="633197836"/>