<?xml version="1.0" encoding="UTF-8"?>

<!-- generated on 2023-07-14 11:31:47 by Eclipse SUMO netconvert Version 1.17.0
<configuration xmlns:xsi="http://www.w3.org/2001/XMLSchema-instance" xsi:noNamespaceSchemaLocation="http://sumo.dlr.de/xsd/netconvertConfiguration.xsd">

    <input>
        <sumo-net-file value="osm.net.xml.gz"/>
    </input>

    <output>
        <output-file value="osm.net.xml"/>
        <output.street-names value="true"/>
    </output>

    <processing>
        <geometry.min-radius.fix.railways value="false"/>
        <geometry.max-grade.fix value="false"/>
        <offset.disable-normalization value="true"/>
        <lefthand value="1"/>
    </processing>

    <junctions>
        <no-turnarounds value="true"/>
        <junctions.corner-detail value="5"/>
        <junctions.limit-turn-speed value="5.50"/>
        <rectangular-lane-cut value="0"/>
    </junctions>

    <pedestrian>
        <walkingareas value="0"/>
    </pedestrian>

</configuration>
-->

<net version="1.16" junctionCornerDetail="5" lefthand="true" limitTurnSpeed="5.50" xmlns:xsi="http://www.w3.org/2001/XMLSchema-instance" xsi:noNamespaceSchemaLocation="http://sumo.dlr.de/xsd/net_file.xsd">

    <location netOffset="-367279.60,-161334.08" convBoundary="0.00,0.00,513.79,470.75" origBoundary="103.806977,1.459321,103.811593,1.463579" projParameter="+proj=utm +zone=48 +ellps=WGS84 +datum=WGS84 +units=m +no_defs"/>

    <type id="highway.bridleway" priority="1" numLanes="1" speed="2.78" allow="pedestrian" oneway="1" width="2.00"/>
    <type id="highway.bus_guideway" priority="1" numLanes="1" speed="27.78" allow="bus" oneway="1"/>
    <type id="highway.cycleway" priority="1" numLanes="1" speed="5.56" allow="bicycle" oneway="0" width="1.00"/>
    <type id="highway.footway" priority="1" numLanes="1" speed="2.78" allow="pedestrian" oneway="1" width="2.00"/>
    <type id="highway.ford" priority="1" numLanes="1" speed="2.78" allow="army" oneway="0"/>
    <type id="highway.living_street" priority="2" numLanes="1" speed="2.78" disallow="tram rail_urban rail rail_electric rail_fast ship" oneway="0"/>
    <type id="highway.motorway" priority="14" numLanes="2" speed="39.44" allow="private emergency authority army vip passenger hov taxi bus coach delivery truck trailer motorcycle evehicle custom1 custom2" oneway="1"/>
    <type id="highway.motorway_link" priority="9" numLanes="1" speed="22.22" allow="private emergency authority army vip passenger hov taxi bus coach delivery truck trailer motorcycle evehicle custom1 custom2" oneway="1"/>
    <type id="highway.path" priority="1" numLanes="1" speed="5.56" allow="pedestrian bicycle" oneway="0" width="2.00"/>
    <type id="highway.pedestrian" priority="1" numLanes="1" speed="2.78" allow="pedestrian" oneway="1" width="2.00"/>
    <type id="highway.primary" priority="12" numLanes="2" speed="27.78" disallow="tram rail_urban rail rail_electric rail_fast ship" oneway="0"/>
    <type id="highway.primary_link" priority="7" numLanes="1" speed="22.22" disallow="tram rail_urban rail rail_electric rail_fast ship" oneway="0"/>
    <type id="highway.raceway" priority="15" numLanes="2" speed="83.33" allow="vip" oneway="0"/>
    <type id="highway.residential" priority="3" numLanes="1" speed="13.89" disallow="tram rail_urban rail rail_electric rail_fast ship" oneway="0"/>
    <type id="highway.secondary" priority="11" numLanes="1" speed="27.78" disallow="tram rail_urban rail rail_electric rail_fast ship" oneway="0"/>
    <type id="highway.secondary_link" priority="6" numLanes="1" speed="22.22" disallow="tram rail_urban rail rail_electric rail_fast ship" oneway="0"/>
    <type id="highway.service" priority="1" numLanes="1" speed="5.56" allow="pedestrian delivery bicycle" oneway="0"/>
    <type id="highway.stairs" priority="1" numLanes="1" speed="1.39" allow="pedestrian" oneway="1" width="2.00"/>
    <type id="highway.step" priority="1" numLanes="1" speed="1.39" allow="pedestrian" oneway="1" width="2.00"/>
    <type id="highway.steps" priority="1" numLanes="1" speed="1.39" allow="pedestrian" oneway="1" width="2.00"/>
    <type id="highway.tertiary" priority="10" numLanes="1" speed="22.22" disallow="tram rail_urban rail rail_electric rail_fast ship" oneway="0"/>
    <type id="highway.tertiary_link" priority="5" numLanes="1" speed="22.22" disallow="tram rail_urban rail rail_electric rail_fast ship" oneway="0"/>
    <type id="highway.track" priority="1" numLanes="1" speed="5.56" allow="pedestrian motorcycle moped bicycle" oneway="0"/>
    <type id="highway.trunk" priority="13" numLanes="2" speed="27.78" disallow="pedestrian bicycle tram rail_urban rail rail_electric rail_fast ship" oneway="0"/>
    <type id="highway.trunk_link" priority="8" numLanes="1" speed="22.22" disallow="pedestrian bicycle tram rail_urban rail rail_electric rail_fast ship" oneway="0"/>
    <type id="highway.unclassified" priority="4" numLanes="1" speed="13.89" disallow="tram rail_urban rail rail_electric rail_fast ship" oneway="0"/>
    <type id="highway.unsurfaced" priority="1" numLanes="1" speed="8.33" disallow="tram rail_urban rail rail_electric rail_fast ship" oneway="0"/>
    <type id="railway.highspeed" priority="21" numLanes="1" speed="69.44" allow="rail_fast" oneway="1"/>
    <type id="railway.light_rail" priority="19" numLanes="1" speed="27.78" allow="rail_urban" oneway="1"/>
    <type id="railway.preserved" priority="16" numLanes="1" speed="27.78" allow="rail" oneway="1"/>
    <type id="railway.rail" priority="20" numLanes="1" speed="44.44" allow="rail" oneway="1"/>
    <type id="railway.subway" priority="18" numLanes="1" speed="27.78" allow="rail_urban" oneway="1"/>
    <type id="railway.tram" priority="17" numLanes="1" speed="13.89" allow="tram" oneway="1"/>

    <edge id=":4606975368_0" function="internal">
        <lane id=":4606975368_0_0" index="0" disallow="tram rail_urban rail rail_electric rail_fast ship" speed="16.66" length="18.66" shape="272.73,318.92 268.98,319.23 264.94,318.95 260.30,317.77 254.72,315.39"/>
    </edge>
    <edge id=":4606975368_1" function="internal">
        <lane id=":4606975368_1_0" index="0" disallow="tram rail_urban rail rail_electric rail_fast ship" speed="19.44" length="18.61" shape="271.34,323.78 254.72,315.39"/>
        <lane id=":4606975368_1_1" index="1" disallow="tram rail_urban rail rail_electric rail_fast ship" speed="19.44" length="18.61" shape="269.90,326.63 253.29,318.25"/>
        <lane id=":4606975368_1_2" index="2" disallow="tram rail_urban rail rail_electric rail_fast ship" speed="19.44" length="18.61" shape="268.46,329.49 251.86,321.12"/>
    </edge>
    <edge id=":4606975373_0" function="internal">
        <lane id=":4606975373_0_0" index="0" disallow="tram rail_urban rail rail_electric rail_fast ship" speed="12.00" length="7.00" shape="291.47,309.71 290.39,311.43 289.35,312.37 288.06,313.09 286.23,314.11"/>
    </edge>
    <edge id=":4606975373_1" function="internal">
        <lane id=":4606975373_1_0" index="0" disallow="tram rail_urban rail rail_electric rail_fast ship" speed="19.44" length="7.88" shape="294.30,311.19 292.99,313.04 291.70,314.02 290.38,314.99 288.97,316.79"/>
        <lane id=":4606975373_1_1" index="1" disallow="tram rail_urban rail rail_electric rail_fast ship" speed="19.44" length="7.88" shape="297.14,312.67 295.81,314.56 294.50,315.57 293.16,316.57 291.73,318.40"/>
    </edge>
    <edge id=":4723249045_0" function="internal">
        <lane id=":4723249045_0_0" index="0" disallow="tram rail_urban rail rail_electric rail_fast ship" speed="19.44" length="8.20" shape="214.50,322.57 216.53,323.90 217.71,325.13 218.90,326.35 220.94,327.65"/>
        <lane id=":4723249045_0_1" index="1" disallow="tram rail_urban rail rail_electric rail_fast ship" speed="19.44" length="8.20" shape="215.97,319.73 217.99,321.06 219.16,322.28 220.34,323.49 222.37,324.79"/>
        <lane id=":4723249045_0_2" index="2" disallow="tram rail_urban rail rail_electric rail_fast ship" speed="19.44" length="8.20" shape="217.45,316.89 219.45,318.21 220.62,319.43 221.79,320.64 223.81,321.93"/>
        <lane id=":4723249045_0_3" index="3" disallow="tram rail_urban rail rail_electric rail_fast ship" speed="19.44" length="8.20" shape="217.45,316.89 219.67,317.76 221.34,318.00 223.01,318.23 225.24,319.07"/>
    </edge>
    <edge id=":5967968121_0" function="internal">
        <lane id=":5967968121_0_0" index="0" disallow="tram rail_urban rail rail_electric rail_fast ship" speed="19.44" length="8.21" shape="223.39,303.31 221.36,302.01 220.17,300.80 218.98,299.60 216.95,298.30"/>
        <lane id=":5967968121_0_1" index="1" disallow="tram rail_urban rail rail_electric rail_fast ship" speed="19.44" length="8.21" shape="221.96,306.17 219.92,304.88 218.74,303.67 217.55,302.46 215.52,301.16"/>
    </edge>
    <edge id=":5968116126_0" function="internal">
        <lane id=":5968116126_0_0" index="0" disallow="tram rail_urban rail rail_electric rail_fast ship" speed="19.44" length="8.19" shape="170.15,297.84 172.17,299.12 173.34,300.32 174.51,301.53 176.51,302.85"/>
        <lane id=":5968116126_0_1" index="1" disallow="tram rail_urban rail rail_electric rail_fast ship" speed="19.44" length="8.19" shape="171.57,294.97 173.60,296.25 174.79,297.46 175.97,298.68 177.98,300.01"/>
        <lane id=":5968116126_0_2" index="2" disallow="tram rail_urban rail rail_electric rail_fast ship" speed="19.44" length="8.19" shape="171.57,294.97 173.84,295.81 175.53,296.04 177.21,296.28 179.45,297.17"/>
    </edge>
    <edge id=":6141591903_0" function="internal">
        <lane id=":6141591903_0_0" index="0" disallow="tram rail_urban rail rail_electric rail_fast ship" speed="19.44" length="7.73" shape="385.26,381.22 383.39,379.80 382.30,378.55 381.17,377.36 379.20,376.13"/>
        <lane id=":6141591903_0_1" index="1" disallow="tram rail_urban rail rail_electric rail_fast ship" speed="19.44" length="7.73" shape="383.61,383.96 381.81,382.59 380.78,381.36 379.71,380.20 377.81,379.01"/>
        <lane id=":6141591903_0_2" index="2" disallow="tram rail_urban rail rail_electric rail_fast ship" speed="19.44" length="7.73" shape="383.61,383.96 381.61,383.05 380.08,382.81 378.52,382.63 376.43,381.90"/>
    </edge>
    <edge id=":cluster_244489071_244489155_244489161_244489167_0" function="internal">
        <lane id=":cluster_244489071_244489155_244489161_244489167_0_0" index="0" disallow="tram rail_urban rail rail_electric rail_fast ship" speed="13.67" length="43.70" shape="285.12,323.36 280.17,334.97 279.81,345.09 284.04,353.71 292.87,360.84"/>
        <lane id=":cluster_244489071_244489155_244489161_244489167_0_1" index="1" disallow="tram rail_urban rail rail_electric rail_fast ship" speed="12.87" length="38.66" shape="287.97,324.82 283.52,335.18 283.12,344.18 286.77,351.80 294.46,358.07"/>
    </edge>
    <edge id=":cluster_244489071_244489155_244489161_244489167_2" function="internal">
        <lane id=":cluster_244489071_244489155_244489161_244489167_2_0" index="0" disallow="tram rail_urban rail rail_electric rail_fast ship" speed="5.74" length="7.48" shape="287.97,324.82 288.50,329.41 290.20,331.71"/>
    </edge>
    <edge id=":cluster_244489071_244489155_244489161_244489167_13" function="internal">
        <lane id=":cluster_244489071_244489155_244489161_244489167_13_0" index="0" disallow="tram rail_urban rail rail_electric rail_fast ship" speed="5.74" length="7.48" shape="290.20,331.71 293.06,331.74 297.09,329.49"/>
    </edge>
    <edge id=":cluster_244489071_244489155_244489161_244489167_3" function="internal">
        <lane id=":cluster_244489071_244489155_244489161_244489167_3_0" index="0" disallow="tram rail_urban rail rail_electric rail_fast ship" speed="6.39" length="8.82" shape="304.95,339.80 302.98,338.32 301.97,336.59 301.91,334.62 302.80,332.41"/>
    </edge>
    <edge id=":cluster_244489071_244489155_244489161_244489167_4" function="internal">
        <lane id=":cluster_244489071_244489155_244489161_244489167_4_0" index="0" disallow="tram rail_urban rail rail_electric rail_fast ship" speed="19.44" length="30.74" shape="304.95,339.80 276.99,326.62"/>
        <lane id=":cluster_244489071_244489155_244489161_244489167_4_1" index="1" disallow="tram rail_urban rail rail_electric rail_fast ship" speed="19.44" length="30.74" shape="303.36,342.57 275.55,329.48"/>
        <lane id=":cluster_244489071_244489155_244489161_244489167_4_2" index="2" disallow="tram rail_urban rail rail_electric rail_fast ship" speed="19.44" length="30.74" shape="301.76,345.35 274.10,332.34"/>
    </edge>
    <edge id=":cluster_244489071_244489155_244489161_244489167_7" function="internal">
        <lane id=":cluster_244489071_244489155_244489161_244489167_7_0" index="0" disallow="tram rail_urban rail rail_electric rail_fast ship" speed="6.75" length="18.12" shape="301.76,345.35 295.17,345.79 291.75,348.06 291.52,352.15 292.99,355.12"/>
    </edge>
    <edge id=":cluster_244489071_244489155_244489161_244489167_14" function="internal">
        <lane id=":cluster_244489071_244489155_244489161_244489167_14_0" index="0" disallow="tram rail_urban rail rail_electric rail_fast ship" speed="6.75" length="3.30" shape="292.99,355.12 294.46,358.07"/>
    </edge>
    <edge id=":cluster_244489071_244489155_244489161_244489167_8" function="internal">
        <lane id=":cluster_244489071_244489155_244489161_244489167_8_0" index="0" disallow="tram rail_urban rail rail_electric rail_fast ship" speed="19.44" length="29.85" shape="265.24,349.90 273.93,353.73 280.78,356.01 286.76,357.97 292.87,360.84"/>
        <lane id=":cluster_244489071_244489155_244489161_244489167_8_1" index="1" disallow="tram rail_urban rail rail_electric rail_fast ship" speed="19.44" length="29.85" shape="266.68,347.04 275.43,350.91 282.32,353.21 288.34,355.19 294.46,358.07"/>
    </edge>
    <edge id=":cluster_244489071_244489155_244489161_244489167_10" function="internal">
        <lane id=":cluster_244489071_244489155_244489161_244489167_10_0" index="0" disallow="tram rail_urban rail rail_electric rail_fast ship" speed="13.23" length="38.64" shape="268.12,344.19 277.07,346.87 285.35,345.56 292.98,340.25 299.95,330.95"/>
        <lane id=":cluster_244489071_244489155_244489161_244489167_10_1" index="1" disallow="tram rail_urban rail rail_electric rail_fast ship" speed="12.36" length="33.57" shape="269.56,341.33 277.24,343.59 284.38,342.37 291.00,337.67 297.09,329.49"/>
    </edge>
    <edge id=":cluster_244489071_244489155_244489161_244489167_12" function="internal">
        <lane id=":cluster_244489071_244489155_244489161_244489167_12_0" index="0" disallow="tram rail_urban rail rail_electric rail_fast ship" speed="5.70" length="14.72" shape="269.56,341.33 274.07,340.79 276.33,339.10 276.34,336.29 274.10,332.34"/>
    </edge>

    <edge id="22762777" from="cluster_244489071_244489155_244489161_244489167" to="4606975368" name="Admiralty Road West" priority="12" type="highway.primary" spreadType="center" shape="281.59,332.53 275.35,329.38 273.25,328.32 247.34,315.28">
        <lane id="22762777_0" index="0" disallow="tram rail_urban rail rail_electric rail_fast ship" speed="19.44" length="6.32" shape="276.99,326.62 276.79,326.52 274.69,325.46 271.34,323.78">
            <param key="origId" value="22762777"/>
        </lane>
        <lane id="22762777_1" index="1" disallow="tram rail_urban rail rail_electric rail_fast ship" speed="19.44" length="6.32" shape="275.55,329.48 275.35,329.38 273.25,328.32 269.90,326.63">
            <param key="origId" value="22762777"/>
        </lane>
        <lane id="22762777_2" index="2" disallow="tram rail_urban rail rail_electric rail_fast ship" speed="19.44" length="6.32" shape="274.10,332.34 273.91,332.24 271.81,331.18 268.46,329.49">
            <param key="origId" value="22762777"/>
        </lane>
        <param key="origFrom" value="244489155"/>
    </edge>
    <edge id="22773794" from="cluster_244489071_244489155_244489161_244489167" to="1483360618" name="Admiralty Road West" priority="12" type="highway.primary" spreadType="center" shape="287.56,355.95 294.51,359.94 296.22,360.91 300.99,363.65 330.28,378.75 468.59,449.96 513.79,470.75">
        <lane id="22773794_0" index="0" disallow="tram rail_urban rail rail_electric rail_fast ship" speed="19.44" length="246.71" shape="292.87,360.84 293.71,361.33 295.43,362.30 300.22,365.06 329.55,380.17 467.89,451.40 513.12,472.20">
            <param key="origId" value="22773794 299080972 299080973"/>
        </lane>
        <lane id="22773794_1" index="1" disallow="tram rail_urban rail rail_electric rail_fast ship" speed="19.44" length="246.71" shape="294.46,358.07 295.31,358.55 297.01,359.52 301.76,362.24 331.01,377.33 469.29,448.52 514.46,469.30">
            <param key="origId" value="22773794 299080972 299080973"/>
        </lane>
        <param key="origFrom" value="244489161"/>
    </edge>
    <edge id="22773799" from="4606975373" to="cluster_244489071_244489155_244489161_244489167" name="Woodlands Avenue 10" priority="12" type="highway.primary" spreadType="center" shape="295.89,308.15 286.41,324.32 285.11,326.53 281.59,332.53">
        <lane id="22773799_0" index="0" disallow="tram rail_urban rail rail_electric rail_fast ship" speed="19.44" length="7.53" shape="288.97,316.79 285.12,323.36">
            <param key="origId" value="22773799"/>
        </lane>
        <lane id="22773799_1" index="1" disallow="tram rail_urban rail rail_electric rail_fast ship" speed="19.44" length="7.53" shape="291.73,318.40 287.97,324.82">
            <param key="origId" value="22773799"/>
        </lane>
        <param key="origTo" value="244489155"/>
    </edge>
    <edge id="465776414" from="4606975373" to="4606975368" priority="7" type="highway.primary_link" spreadType="center" shape="295.89,308.15 283.46,315.82 278.09,318.19 273.78,318.78 270.48,319.23 263.62,318.20 247.34,315.28">
        <lane id="465776414_0" index="0" disallow="tram rail_urban rail rail_electric rail_fast ship" speed="13.89" length="14.54" shape="286.23,314.11 283.46,315.82 278.09,318.19 273.78,318.78 272.73,318.92">
            <param key="origId" value="465776414"/>
        </lane>
    </edge>
    <edge id="479136461" from="244489154" to="4606975373" name="Woodlands Avenue 10" priority="12" type="highway.primary" spreadType="center">
        <lane id="479136461_0" index="0" disallow="tram rail_urban rail rail_electric rail_fast ship" speed="19.44" length="73.78" shape="325.58,244.29 291.47,309.71">
            <param key="origId" value="479136461"/>
        </lane>
        <lane id="479136461_1" index="1" disallow="tram rail_urban rail rail_electric rail_fast ship" speed="19.44" length="73.78" shape="328.42,245.77 294.30,311.19">
            <param key="origId" value="479136461"/>
        </lane>
        <lane id="479136461_2" index="2" disallow="tram rail_urban rail rail_electric rail_fast ship" speed="19.44" length="73.78" shape="331.26,247.25 297.14,312.67">
            <param key="origId" value="479136461"/>
        </lane>
    </edge>
    <edge id="479178699" from="4723249045" to="cluster_244489071_244489155_244489161_244489167" name="Admiralty Road West" priority="12" type="highway.primary" spreadType="center" shape="219.52,321.57 264.60,344.20 267.05,345.44 272.92,348.40">
        <lane id="479178699_0" index="0" disallow="tram rail_urban rail rail_electric rail_fast ship" speed="19.44" length="49.58" shape="220.94,327.65 262.45,348.49 264.89,349.72 265.24,349.90">
            <param key="origId" value="479178699"/>
        </lane>
        <lane id="479178699_1" index="1" disallow="tram rail_urban rail rail_electric rail_fast ship" speed="19.44" length="49.58" shape="222.37,324.79 263.88,345.63 266.33,346.87 266.68,347.04">
            <param key="origId" value="479178699"/>
        </lane>
        <lane id="479178699_2" index="2" disallow="tram rail_urban rail rail_electric rail_fast ship" speed="19.44" length="49.58" shape="223.81,321.93 265.32,342.77 267.77,344.01 268.12,344.19">
            <param key="origId" value="479178699"/>
        </lane>
        <lane id="479178699_3" index="3" disallow="tram rail_urban rail rail_electric rail_fast ship" speed="19.44" length="49.58" shape="225.24,319.07 266.75,339.91 269.21,341.16 269.56,341.33">
            <param key="origId" value="479178699"/>
        </lane>
        <param key="origTo" value="244489167"/>
    </edge>
    <edge id="632022376" from="cluster_244489071_244489155_244489161_244489167" to="6646472608" name="Woodlands Avenue 10" priority="12" type="highway.primary" spreadType="center" shape="295.98,338.47 299.02,332.54 299.88,331.06 306.24,320.23 349.39,241.25 414.52,108.58 469.91,0.00">
        <lane id="632022376_0" index="0" disallow="tram rail_urban rail rail_electric rail_fast ship" speed="19.44" length="372.12" shape="302.80,332.41 309.02,321.81 352.23,242.72 417.38,110.01 472.76,1.45">
            <param key="origId" value="632022376 707259127"/>
        </lane>
        <lane id="632022376_1" index="1" disallow="tram rail_urban rail rail_electric rail_fast ship" speed="19.44" length="372.12" shape="299.95,330.95 306.24,320.23 349.39,241.25 414.52,108.58 469.91,-0.00">
            <param key="origId" value="632022376 707259127"/>
        </lane>
        <lane id="632022376_2" index="2" disallow="tram rail_urban rail rail_electric rail_fast ship" speed="19.44" length="372.12" shape="297.09,329.49 303.46,318.65 346.55,239.78 411.66,107.15 467.06,-1.45">
            <param key="origId" value="632022376 707259127"/>
        </lane>
        <param key="origFrom" value="244489071"/>
    </edge>
    <edge id="632040286" from="5967968121" to="5967968120" name="Admiralty Road West" priority="12" type="highway.primary" spreadType="center">
        <lane id="632040286_0" index="0" disallow="tram rail_urban rail rail_electric rail_fast ship" speed="19.44" length="203.65" shape="216.95,298.30 34.80,207.24">
            <param key="origId" value="632040286"/>
        </lane>
        <lane id="632040286_1" index="1" disallow="tram rail_urban rail rail_electric rail_fast ship" speed="19.44" length="203.65" shape="215.52,301.16 33.36,210.10">
            <param key="origId" value="632040286"/>
        </lane>
    </edge>
    <edge id="632068610" from="5968116126" to="4723249045" name="Admiralty Road West" priority="12" type="highway.primary" spreadType="center">
        <lane id="632068610_0" index="0" disallow="tram rail_urban rail rail_electric rail_fast ship" speed="19.44" length="42.81" shape="176.51,302.85 214.50,322.57">
            <param key="origId" value="632068610"/>
        </lane>
        <lane id="632068610_1" index="1" disallow="tram rail_urban rail rail_electric rail_fast ship" speed="19.44" length="42.81" shape="177.98,300.01 215.97,319.73">
            <param key="origId" value="632068610"/>
        </lane>
        <lane id="632068610_2" index="2" disallow="tram rail_urban rail rail_electric rail_fast ship" speed="19.44" length="42.81" shape="179.45,297.17 217.45,316.89">
            <param key="origId" value="632068610"/>
        </lane>
    </edge>
    <edge id="635682878" from="4606975368" to="5967968121" name="Admiralty Road West" priority="12" type="highway.primary" spreadType="center">
        <lane id="635682878_0" index="0" disallow="tram rail_urban rail rail_electric rail_fast ship" speed="19.44" length="33.43" shape="254.72,315.39 224.82,300.45">
            <param key="origId" value="635682878"/>
        </lane>
        <lane id="635682878_1" index="1" disallow="tram rail_urban rail rail_electric rail_fast ship" speed="19.44" length="33.43" shape="253.29,318.25 223.39,303.31">
            <param key="origId" value="635682878"/>
        </lane>
        <lane id="635682878_2" index="2" disallow="tram rail_urban rail rail_electric rail_fast ship" speed="19.44" length="33.43" shape="251.86,321.12 221.96,306.17">
            <param key="origId" value="635682878"/>
        </lane>
    </edge>
    <edge id="655508000" from="6141591903" to="cluster_244489071_244489155_244489161_244489167" name="Admiralty Road West" priority="12" type="highway.primary" spreadType="center" shape="381.21,380.64 338.67,360.27 309.63,345.61 306.14,344.12 295.98,338.47">
        <lane id="655508000_0" index="0" disallow="tram rail_urban rail rail_electric rail_fast ship" speed="19.44" length="82.91" shape="379.20,376.13 340.08,357.40 310.98,342.71 307.55,341.24 304.95,339.80">
            <param key="origId" value="655508000 299080970 299080971 632022375"/>
        </lane>
        <lane id="655508000_1" index="1" disallow="tram rail_urban rail rail_electric rail_fast ship" speed="19.44" length="82.91" shape="377.81,379.01 338.67,360.27 309.63,345.61 306.14,344.12 303.36,342.57">
            <param key="origId" value="655508000 299080970 299080971 632022375"/>
        </lane>
        <lane id="655508000_2" index="2" disallow="tram rail_urban rail rail_electric rail_fast ship" speed="19.44" length="82.91" shape="376.43,381.90 337.26,363.14 308.28,348.51 304.73,347.00 301.76,345.35">
            <param key="origId" value="655508000 299080970 299080971 632022375"/>
        </lane>
        <param key="origTo" value="244489071"/>
    </edge>
    <edge id="655508001" from="6141591904" to="6141591903" name="Admiralty Road West" priority="12" type="highway.primary" spreadType="center" shape="429.31,403.41 387.80,384.62 381.21,380.64">
        <lane id="655508001_0" index="0" disallow="tram rail_urban rail rail_electric rail_fast ship" speed="19.44" length="49.50" shape="429.97,401.95 388.55,383.20 385.26,381.22">
            <param key="origId" value="655508001"/>
        </lane>
        <lane id="655508001_1" index="1" disallow="tram rail_urban rail rail_electric rail_fast ship" speed="19.44" length="49.50" shape="428.65,404.87 387.05,386.04 383.61,383.96">
            <param key="origId" value="655508001"/>
        </lane>
    </edge>
    <edge id="740070885" from="5278511543" to="5968116126" name="Admiralty Road West" priority="12" type="highway.primary" spreadType="center">
        <lane id="740070885_0" index="0" disallow="tram rail_urban rail rail_electric rail_fast ship" speed="19.44" length="190.48" shape="-0.71,213.66 170.15,297.84">
            <param key="origId" value="740070885"/>
        </lane>
        <lane id="740070885_1" index="1" disallow="tram rail_urban rail rail_electric rail_fast ship" speed="19.44" length="190.48" shape="0.71,210.78 171.57,294.97">
            <param key="origId" value="740070885"/>
        </lane>
    </edge>

    <tlLogic id="cluster_244489071_244489155_244489161_244489167" type="actuated" programID="0" offset="0">
        <phase duration="35" state="rrrGGGGgGGrrr" minDur="8" maxDur="50"/>
        <phase duration="5"  state="rrryyyyyyyrrr"/>
        <phase duration="6"  state="rrrrrrrrGGGGG" minDur="8" maxDur="50"/>
        <phase duration="5"  state="rrrrrrrryyyyy"/>
        <phase duration="34" state="GGgGrrrrrrrrG" minDur="8" maxDur="50"/>
        <phase duration="5"  state="yyyyrrrrrrrry"/>
    </tlLogic>

    <junction id="1483360618" type="dead_end" x="513.79" y="470.75" incLanes="22773794_0 22773794_1" intLanes="" shape="512.45,473.66 515.13,467.84"/>
    <junction id="244489154" type="dead_end" x="328.42" y="245.77" incLanes="" intLanes="" shape="332.68,247.99 324.16,243.55"/>
    <junction id="4606975368" type="priority" x="247.34" y="315.28" incLanes="465776414_0 22762777_0 22762777_1 22762777_2" intLanes=":4606975368_0_0 :4606975368_1_0 :4606975368_1_1 :4606975368_1_2" shape="273.01,317.27 272.44,320.58 271.04,320.96 270.81,321.23 270.91,321.55 271.32,321.92 272.06,322.35 267.74,330.92 251.14,322.55 255.43,313.96 258.90,315.68 261.58,316.86 263.90,317.57 266.29,317.84 269.19,317.72">
        <request index="0" response="1110" foes="1110" cont="0"/>
        <request index="1" response="0000" foes="0001" cont="0"/>
        <request index="2" response="0000" foes="0001" cont="0"/>
        <request index="3" response="0000" foes="0001" cont="0"/>
    </junction>
    <junction id="4606975373" type="priority" x="295.89" y="308.15" incLanes="479136461_0 479136461_1 479136461_2" intLanes=":4606975373_0_0 :4606975373_1_0 :4606975373_1_1" shape="290.05,308.97 298.56,313.41 296.78,315.72 295.90,316.35 295.01,316.97 294.09,317.84 293.11,319.21 287.59,315.98 287.07,315.47 285.39,312.75 287.43,311.66 288.16,311.27 288.79,310.78 289.40,310.07">
        <request index="0" response="000" foes="000" cont="0"/>
        <request index="1" response="000" foes="000" cont="0"/>
        <request index="2" response="000" foes="000" cont="0"/>
    </junction>
    <junction id="4723249045" type="priority" x="219.52" y="321.57" incLanes="632068610_0 632068610_1 632068610_2" intLanes=":4723249045_0_0 :4723249045_0_1 :4723249045_0_2 :4723249045_0_3" shape="225.96,317.64 220.22,329.08 217.72,327.36 216.98,326.55 216.24,325.74 215.25,324.90 213.76,323.99 218.19,315.47 220.99,316.46 222.06,316.57 223.14,316.69 224.38,316.98">
        <request index="0" response="0000" foes="0000" cont="0"/>
        <request index="1" response="0000" foes="0000" cont="0"/>
        <request index="2" response="0000" foes="0000" cont="0"/>
        <request index="3" response="0000" foes="0000" cont="0"/>
    </junction>
    <junction id="5278511543" type="dead_end" x="0.00" y="212.22" incLanes="" intLanes="" shape="1.41,209.35 -1.41,215.09"/>
    <junction id="5967968120" type="dead_end" x="34.08" y="208.67" incLanes="632040286_0 632040286_1" intLanes="" shape="35.51,205.81 32.65,211.53"/>