<?xml version="1.0" encoding="UTF-8"?>

<!-- generated on 2023-07-14 15:52:18 by Eclipse SUMO netconvert Version 1.17.0
<configuration xmlns:xsi="http://www.w3.org/2001/XMLSchema-instance" xsi:noNamespaceSchemaLocation="http://sumo.dlr.de/xsd/netconvertConfiguration.xsd">

    <input>
        <sumo-net-file value="osm.net.xml.gz"/>
    </input>

    <output>
        <output-file value="osm.net.xml"/>
        <output.street-names value="true"/>
    </output>

    <processing>
        <geometry.min-radius.fix.railways value="false"/>
        <geometry.max-grade.fix value="false"/>
        <offset.disable-normalization value="true"/>
        <lefthand value="1"/>
    </processing>

    <junctions>
        <no-turnarounds value="true"/>
        <junctions.corner-detail value="5"/>
        <junctions.limit-turn-speed value="5.50"/>
        <rectangular-lane-cut value="0"/>
    </junctions>

    <pedestrian>
        <walkingareas value="0"/>
    </pedestrian>

</configuration>
-->

<net version="1.16" junctionCornerDetail="5" lefthand="true" limitTurnSpeed="5.50" xmlns:xsi="http://www.w3.org/2001/XMLSchema-instance" xsi:noNamespaceSchemaLocation="http://sumo.dlr.de/xsd/net_file.xsd">

    <location netOffset="-365006.13,-140477.92" convBoundary="0.00,0.00,2512.71,823.81" origBoundary="103.786636,1.270666,103.809220,1.278110" projParameter="+proj=utm +zone=48 +ellps=WGS84 +datum=WGS84 +units=m +no_defs"/>

    <type id="highway.bridleway" priority="1" numLanes="1" speed="2.78" allow="pedestrian" oneway="1" width="2.00"/>
    <type id="highway.bus_guideway" priority="1" numLanes="1" speed="27.78" allow="bus" oneway="1"/>
    <type id="highway.cycleway" priority="1" numLanes="1" speed="5.56" allow="bicycle" oneway="0" width="1.00"/>
    <type id="highway.footway" priority="1" numLanes="1" speed="2.78" allow="pedestrian" oneway="1" width="2.00"/>
    <type id="highway.ford" priority="1" numLanes="1" speed="2.78" allow="army" oneway="0"/>
    <type id="highway.living_street" priority="2" numLanes="1" speed="2.78" disallow="tram rail_urban rail rail_electric rail_fast ship" oneway="0"/>
    <type id="highway.motorway" priority="14" numLanes="2" speed="39.44" allow="private emergency authority army vip passenger hov taxi bus coach delivery truck trailer motorcycle evehicle custom1 custom2" oneway="1"/>
    <type id="highway.motorway_link" priority="9" numLanes="1" speed="22.22" allow="private emergency authority army vip passenger hov taxi bus coach delivery truck trailer motorcycle evehicle custom1 custom2" oneway="1"/>
    <type id="highway.path" priority="1" numLanes="1" speed="5.56" allow="pedestrian bicycle" oneway="0" width="2.00"/>
    <type id="highway.pedestrian" priority="1" numLanes="1" speed="2.78" allow="pedestrian" oneway="1" width="2.00"/>
    <type id="highway.primary" priority="12" numLanes="2" speed="27.78" disallow="tram rail_urban rail rail_electric rail_fast ship" oneway="0"/>
    <type id="highway.primary_link" priority="7" numLanes="1" speed="22.22" disallow="tram rail_urban rail rail_electric rail_fast ship" oneway="0"/>
    <type id="highway.raceway" priority="15" numLanes="2" speed="83.33" allow="vip" oneway="0"/>
    <type id="highway.residential" priority="3" numLanes="1" speed="13.89" disallow="tram rail_urban rail rail_electric rail_fast ship" oneway="0"/>
    <type id="highway.secondary" priority="11" numLanes="1" speed="27.78" disallow="tram rail_urban rail rail_electric rail_fast ship" oneway="0"/>
    <type id="highway.secondary_link" priority="6" numLanes="1" speed="22.22" disallow="tram rail_urban rail rail_electric rail_fast ship" oneway="0"/>
    <type id="highway.service" priority="1" numLanes="1" speed="5.56" allow="pedestrian delivery bicycle" oneway="0"/>
    <type id="highway.stairs" priority="1" numLanes="1" speed="1.39" allow="pedestrian" oneway="1" width="2.00"/>
    <type id="highway.step" priority="1" numLanes="1" speed="1.39" allow="pedestrian" oneway="1" width="2.00"/>
    <type id="highway.steps" priority="1" numLanes="1" speed="1.39" allow="pedestrian" oneway="1" width="2.00"/>
    <type id="highway.tertiary" priority="10" numLanes="1" speed="22.22" disallow="tram rail_urban rail rail_electric rail_fast ship" oneway="0"/>
    <type id="highway.tertiary_link" priority="5" numLanes="1" speed="22.22" disallow="tram rail_urban rail rail_electric rail_fast ship" oneway="0"/>
    <type id="highway.track" priority="1" numLanes="1" speed="5.56" allow="pedestrian motorcycle moped bicycle" oneway="0"/>
    <type id="highway.trunk" priority="13" numLanes="2" speed="27.78" disallow="pedestrian bicycle tram rail_urban rail rail_electric rail_fast ship" oneway="0"/>
    <type id="highway.trunk_link" priority="8" numLanes="1" speed="22.22" disallow="pedestrian bicycle tram rail_urban rail rail_electric rail_fast ship" oneway="0"/>
    <type id="highway.unclassified" priority="4" numLanes="1" speed="13.89" disallow="tram rail_urban rail rail_electric rail_fast ship" oneway="0"/>
    <type id="highway.unsurfaced" priority="1" numLanes="1" speed="8.33" disallow="tram rail_urban rail rail_electric rail_fast ship" oneway="0"/>
    <type id="railway.highspeed" priority="21" numLanes="1" speed="69.44" allow="rail_fast" oneway="1"/>
    <type id="railway.light_rail" priority="19" numLanes="1" speed="27.78" allow="rail_urban" oneway="1"/>
    <type id="railway.preserved" priority="16" numLanes="1" speed="27.78" allow="rail" oneway="1"/>
    <type id="railway.rail" priority="20" numLanes="1" speed="44.44" allow="rail" oneway="1"/>
    <type id="railway.subway" priority="18" numLanes="1" speed="27.78" allow="rail_urban" oneway="1"/>
    <type id="railway.tram" priority="17" numLanes="1" speed="13.89" allow="tram" oneway="1"/>

    <edge id=":1101821743_0" function="internal">
        <lane id=":1101821743_0_0" index="0" disallow="tram rail_urban rail rail_electric rail_fast ship" speed="13.89" length="17.57" shape="1723.19,158.04 1724.62,163.47 1724.78,167.87 1724.26,171.68 1723.63,175.34"/>
    </edge>
    <edge id=":1101821743_1" function="internal">
        <lane id=":1101821743_1_0" index="0" disallow="tram rail_urban rail rail_electric rail_fast ship" speed="13.89" length="17.66" shape="1723.19,158.04 1728.48,174.80"/>
        <lane id=":1101821743_1_1" index="1" disallow="tram rail_urban rail rail_electric rail_fast ship" speed="13.89" length="17.66" shape="1726.19,156.93 1731.53,173.85"/>
    </edge>
    <edge id=":1363437911_0" function="internal">
        <lane id=":1363437911_0_0" index="0" disallow="tram rail_urban rail rail_electric rail_fast ship" speed="16.67" length="8.38" shape="1596.81,271.85 1599.05,271.39 1600.73,271.87 1602.43,272.40 1604.73,272.12"/>
        <lane id=":1363437911_0_1" index="1" disallow="tram rail_urban rail rail_electric rail_fast ship" speed="16.67" length="8.38" shape="1595.50,268.93 1597.80,268.44 1599.54,268.90 1601.29,269.41 1603.67,269.10"/>
        <lane id=":1363437911_0_2" index="2" disallow="tram rail_urban rail rail_electric rail_fast ship" speed="16.67" length="8.38" shape="1594.18,266.01 1596.56,265.49 1598.34,265.93 1600.15,266.42 1602.60,266.08"/>
        <lane id=":1363437911_0_3" index="3" disallow="tram rail_urban rail rail_electric rail_fast ship" speed="16.67" length="8.38" shape="1594.18,266.01 1601.53,263.07"/>
        <lane id=":1363437911_0_4" index="4" disallow="tram rail_urban rail rail_electric rail_fast ship" speed="16.67" length="8.38" shape="1594.18,266.01 1596.26,264.53 1597.28,262.91 1598.32,261.34 1600.47,260.05"/>
    </edge>
    <edge id=":1858744180_0" function="internal">
        <lane id=":1858744180_0_0" index="0" disallow="tram rail_urban rail rail_electric rail_fast ship" speed="16.67" length="8.10" shape="1364.41,341.69 1362.19,342.32 1360.57,342.37 1358.93,342.38 1356.68,342.90"/>
        <lane id=":1858744180_0_1" index="1" disallow="tram rail_urban rail rail_electric rail_fast ship" speed="16.67" length="8.10" shape="1365.61,344.66 1363.35,345.31 1361.70,345.36 1360.03,345.38 1357.73,345.92"/>
        <lane id=":1858744180_0_2" index="2" disallow="tram rail_urban rail rail_electric rail_fast ship" speed="16.67" length="8.10" shape="1366.82,347.62 1364.51,348.29 1362.83,348.36 1361.13,348.39 1358.78,348.94"/>
        <lane id=":1858744180_0_3" index="3" disallow="tram rail_urban rail rail_electric rail_fast ship" speed="16.67" length="8.10" shape="1366.82,347.62 1364.67,348.76 1363.35,349.87 1362.03,350.94 1359.83,351.97"/>
    </edge>
    <edge id=":1944141214_0" function="internal">
        <lane id=":1944141214_0_0" index="0" allow="bus bicycle" speed="3.65" length="4.67" shape="2221.51,119.43 2222.27,118.21 2222.31,117.31 2221.62,116.75 2220.19,116.51"/>
    </edge>
    <edge id=":246294740_0" function="internal">
        <lane id=":246294740_0_0" index="0" disallow="tram rail_urban rail rail_electric rail_fast ship" speed="16.67" length="8.15" shape="1867.52,198.53 1865.18,198.52 1863.59,198.13 1861.99,197.70 1859.64,197.61"/>
        <lane id=":246294740_0_1" index="1" disallow="tram rail_urban rail rail_electric rail_fast ship" speed="16.67" length="8.15" shape="1867.86,201.71 1865.49,201.71 1863.86,201.31 1862.24,200.89 1859.86,200.80"/>
        <lane id=":246294740_0_2" index="2" disallow="tram rail_urban rail rail_electric rail_fast ship" speed="16.67" length="8.15" shape="1868.20,204.89 1865.79,204.90 1864.14,204.50 1862.49,204.08 1860.07,204.00"/>
        <lane id=":246294740_0_3" index="3" disallow="tram rail_urban rail rail_electric rail_fast ship" speed="16.67" length="8.15" shape="1868.20,204.89 1865.82,205.40 1864.25,206.10 1862.68,206.77 1860.29,207.19"/>
    </edge>
    <edge id=":246294742_0" function="internal">
        <lane id=":246294742_0_0" index="0" disallow="pedestrian bicycle tram rail_urban rail rail_electric rail_fast ship" speed="15.28" length="3.86" shape="2000.78,176.68 1997.65,174.42"/>
    </edge>
    <edge id=":246294742_1" function="internal">
        <lane id=":246294742_1_0" index="0" disallow="tram rail_urban rail rail_electric rail_fast ship" speed="16.67" length="2.97" shape="2000.23,175.25 1998.51,177.50"/>
        <lane id=":246294742_1_1" index="1" disallow="tram rail_urban rail rail_electric rail_fast ship" speed="16.67" length="2.97" shape="2001.37,178.24 1999.36,180.59"/>
    </edge>
    <edge id=":246294743_0" function="internal">
        <lane id=":246294743_0_0" index="0" disallow="tram rail_urban rail rail_electric rail_fast ship" speed="16.67" length="8.21" shape="2103.56,137.76 2101.26,138.42 2099.57,138.49 2097.88,138.55 2095.56,139.17"/>
        <lane id=":246294743_0_1" index="1" disallow="tram rail_urban rail rail_electric rail_fast ship" speed="16.67" length="8.21" shape="2104.75,140.73 2102.43,141.40 2100.74,141.47 2099.03,141.54 2096.69,142.16"/>
    </edge>
    <edge id=":246294809_0" function="internal">
        <lane id=":246294809_0_0" index="0" allow="bus bicycle" speed="16.67" length="7.38" shape="2173.79,137.33 2166.96,140.12"/>
    </edge>
    <edge id=":246294809_1" function="internal">
        <lane id=":246294809_1_0" index="0" disallow="tram rail_urban rail rail_electric rail_fast ship" speed="16.67" length="8.46" shape="2170.28,149.12 2172.82,148.72 2174.69,149.17 2176.55,149.57 2179.03,149.01"/>
        <lane id=":246294809_1_1" index="1" disallow="tram rail_urban rail rail_electric rail_fast ship" speed="16.67" length="8.46" shape="2169.17,146.12 2171.65,145.74 2173.49,146.20 2175.30,146.62 2177.72,146.09"/>
        <lane id=":246294809_1_2" index="2" disallow="tram rail_urban rail rail_electric rail_fast ship" speed="16.67" length="8.46" shape="2168.06,143.12 2170.48,142.76 2172.28,143.24 2174.05,143.68 2176.41,143.17"/>
        <lane id=":246294809_1_3" index="3" disallow="tram rail_urban rail rail_electric rail_fast ship" speed="16.67" length="8.46" shape="2168.06,143.12 2175.10,140.25"/>
    </edge>
    <edge id=":246294810_0" function="internal">
        <lane id=":246294810_0_0" index="0" allow="bus bicycle" speed="16.67" length="20.54" shape="2108.33,161.54 2088.93,168.28"/>
    </edge>
    <edge id=":246294810_1" function="internal">
        <lane id=":246294810_1_0" index="0" allow="bus bicycle" speed="9.63" length="3.90" shape="2108.33,161.54 2104.94,163.47"/>
    </edge>
    <edge id=":246294810_2" function="internal">
        <lane id=":246294810_2_0" index="0" allow="bus bicycle" speed="3.65" length="1.44" shape="2108.33,161.54 2107.47,162.70"/>
    </edge>
    <edge id=":246294810_11" function="internal">
        <lane id=":246294810_11_0" index="0" allow="bus bicycle" speed="9.63" length="18.66" shape="2104.94,163.47 2103.35,164.38 2100.75,168.42 2100.54,173.65 2102.71,180.09"/>
    </edge>
    <edge id=":246294810_12" function="internal">
        <lane id=":246294810_12_0" index="0" allow="bus bicycle" speed="3.65" length="3.23" shape="2107.47,162.70 2107.37,163.59 2108.02,164.20 2109.42,164.54"/>
    </edge>
    <edge id=":246294810_3" function="internal">
        <lane id=":246294810_3_0" index="0" disallow="tram rail_urban rail rail_electric rail_fast ship" speed="6.28" length="8.97" shape="2108.64,177.65 2107.91,175.29 2108.16,173.32 2109.39,171.74 2111.61,170.56"/>
        <lane id=":246294810_3_1" index="1" disallow="tram rail_urban rail rail_electric rail_fast ship" speed="7.78" length="14.37" shape="2105.67,178.87 2104.52,175.11 2104.94,171.97 2106.94,169.45 2110.51,167.55"/>
    </edge>
    <edge id=":246294810_5" function="internal">
        <lane id=":246294810_5_0" index="0" allow="bus bicycle" speed="10.31" length="21.85" shape="2105.67,178.87 2102.14,172.99 2098.17,169.27 2093.76,167.70 2088.93,168.28"/>
    </edge>
    <edge id=":246294810_6" function="internal">
        <lane id=":246294810_6_0" index="0" disallow="tram rail_urban rail rail_electric rail_fast ship" speed="7.04" length="9.70" shape="2091.93,177.40 2094.35,177.01 2096.46,177.53 2098.26,178.96 2099.75,181.31"/>
    </edge>
    <edge id=":246294810_7" function="internal">
        <lane id=":246294810_7_0" index="0" disallow="tram rail_urban rail rail_electric rail_fast ship" speed="16.67" length="20.73" shape="2091.93,177.40 2111.61,170.56"/>
        <lane id=":246294810_7_1" index="1" disallow="tram rail_urban rail rail_electric rail_fast ship" speed="16.67" length="20.73" shape="2090.93,174.36 2110.51,167.55"/>
        <lane id=":246294810_7_2" index="2" disallow="tram rail_urban rail rail_electric rail_fast ship" speed="16.67" length="20.73" shape="2089.93,171.32 2109.42,164.54"/>
    </edge>
    <edge id=":246294810_10" function="internal">
        <lane id=":246294810_10_0" index="0" allow="bus bicycle" speed="3.65" length="1.44" shape="2089.93,171.32 2090.82,170.18"/>
    </edge>
    <edge id=":246294810_13" function="internal">
        <lane id=":246294810_13_0" index="0" allow="bus bicycle" speed="3.65" length="3.23" shape="2090.82,170.18 2090.95,169.30 2090.32,168.66 2088.93,168.28"/>
    </edge>
    <edge id=":3344030483_0" function="internal">
        <lane id=":3344030483_0_0" index="0" disallow="tram rail_urban rail rail_electric rail_fast ship" speed="16.67" length="10.13" shape="1399.73,357.40 1409.39,354.02"/>
        <lane id=":3344030483_0_1" index="1" disallow="tram rail_urban rail rail_electric rail_fast ship" speed="16.67" length="10.13" shape="1398.71,354.37 1408.27,351.02"/>
        <lane id=":3344030483_0_2" index="2" disallow="tram rail_urban rail rail_electric rail_fast ship" speed="16.67" length="10.13" shape="1397.69,351.34 1407.16,348.02"/>
    </edge>
    <edge id=":3344030483_3" function="internal">
        <lane id=":3344030483_3_0" index="0" disallow="tram rail_urban rail rail_electric rail_fast ship" speed="7.08" length="11.31" shape="1400.47,344.86 1401.92,348.28 1403.71,350.45 1405.82,351.36 1408.27,351.02"/>
        <lane id=":3344030483_3_1" index="1" disallow="tram rail_urban rail rail_electric rail_fast ship" speed="6.24" length="8.53" shape="1400.47,344.86 1401.49,346.95 1402.94,348.18 1404.83,348.53 1407.16,348.02"/>
    </edge>
    <edge id=":3570904714_0" function="internal">
        <lane id=":3570904714_0_0" index="0" disallow="tram rail_urban rail rail_electric rail_fast ship" speed="3.65" length="4.67" shape="1973.40,447.94 1973.41,449.38 1973.86,450.16 1974.75,450.26 1976.08,449.70"/>
    </edge>
    <edge id=":3712306918_0" function="internal">
        <lane id=":3712306918_0_0" index="0" disallow="tram rail_urban rail rail_electric rail_fast ship" speed="16.67" length="8.17" shape="1725.04,372.11 1725.68,369.77 1726.47,368.27 1727.26,366.76 1727.85,364.42"/>
        <lane id=":3712306918_0_1" index="1" disallow="tram rail_urban rail rail_electric rail_fast ship" speed="16.67" length="8.17" shape="1721.88,371.58 1722.52,369.27 1723.31,367.78 1724.09,366.28 1724.68,363.96"/>
        <lane id=":3712306918_0_2" index="2" disallow="tram rail_urban rail rail_electric rail_fast ship" speed="16.67" length="8.17" shape="1718.72,371.06 1719.36,368.77 1720.15,367.29 1720.93,365.81 1721.51,363.51"/>
    </edge>
    <edge id=":4353987490_0" function="internal">
        <lane id=":4353987490_0_0" index="0" disallow="tram rail_urban rail rail_electric rail_fast ship" speed="16.67" length="8.13" shape="1807.84,201.15 1805.54,201.06 1803.99,200.59 1802.44,200.10 1800.14,199.90"/>
        <lane id=":4353987490_0_1" index="1" disallow="tram rail_urban rail rail_electric rail_fast ship" speed="16.67" length="8.13" shape="1808.06,204.34 1805.72,204.25 1804.14,203.79 1802.56,203.29 1800.21,203.10"/>
        <lane id=":4353987490_0_2" index="2" disallow="tram rail_urban rail rail_electric rail_fast ship" speed="16.67" length="8.13" shape="1808.28,207.54 1805.89,207.45 1804.28,206.99 1802.67,206.49 1800.28,206.30"/>
        <lane id=":4353987490_0_3" index="3" disallow="tram rail_urban rail rail_electric rail_fast ship" speed="16.67" length="8.13" shape="1808.50,210.73 1806.07,210.64 1804.43,210.18 1802.79,209.69 1800.36,209.50"/>
        <lane id=":4353987490_0_4" index="4" disallow="tram rail_urban rail rail_electric rail_fast ship" speed="16.67" length="8.13" shape="1808.50,210.73 1806.07,211.14 1804.46,211.78 1802.86,212.39 1800.43,212.70"/>
    </edge>
    <edge id=":4353987491_0" function="internal">
        <lane id=":4353987491_0_0" index="0" disallow="tram rail_urban rail rail_electric rail_fast ship" speed="15.28" length="14.05" shape="1779.39,200.36 1775.03,200.12 1771.84,199.29 1769.09,198.06 1766.04,196.63"/>
    </edge>
    <edge id=":4353987491_1" function="internal">
        <lane id=":4353987491_1_0" index="0" disallow="tram rail_urban rail rail_electric rail_fast ship" speed="16.67" length="13.89" shape="1779.39,200.36 1765.35,201.55"/>
        <lane id=":4353987491_1_1" index="1" disallow="tram rail_urban rail rail_electric rail_fast ship" speed="16.67" length="13.89" shape="1779.46,203.56 1765.52,204.75"/>
        <lane id=":4353987491_1_2" index="2" disallow="tram rail_urban rail rail_electric rail_fast ship" speed="16.67" length="13.89" shape="1779.53,206.76 1765.69,207.94"/>
        <lane id=":4353987491_1_3" index="3" disallow="tram rail_urban rail rail_electric rail_fast ship" speed="16.67" length="13.89" shape="1779.60,209.96 1765.86,211.14"/>
        <lane id=":4353987491_1_4" index="4" disallow="tram rail_urban rail rail_electric rail_fast ship" speed="16.67" length="13.89" shape="1779.68,213.16 1766.03,214.33"/>
    </edge>
    <edge id=":435833849_0" function="internal">
        <lane id=":435833849_0_0" index="0" disallow="tram rail_urban rail rail_electric rail_fast ship" speed="13.33" length="8.12" shape="1673.11,247.06 1675.39,246.55 1677.03,246.66 1678.67,247.15 1681.01,247.78"/>
    </edge>
    <edge id=":435833849_1" function="internal">
        <lane id=":435833849_1_0" index="0" disallow="tram rail_urban rail rail_electric rail_fast ship" speed="16.67" length="9.15" shape="1672.14,244.01 1674.69,243.59 1676.52,243.89 1678.37,244.25 1680.97,244.00"/>
        <lane id=":435833849_1_1" index="1" disallow="tram rail_urban rail rail_electric rail_fast ship" speed="16.67" length="9.15" shape="1671.17,240.96 1673.79,240.52 1675.66,240.81 1677.56,241.15 1680.22,240.89"/>
        <lane id=":435833849_1_2" index="2" disallow="tram rail_urban rail rail_electric rail_fast ship" speed="16.67" length="9.15" shape="1670.21,237.91 1672.88,237.45 1674.80,237.72 1676.74,238.06 1679.47,237.77"/>
    </edge>
    <edge id=":435833857_0" function="internal">
        <lane id=":435833857_0_0" index="0" disallow="tram rail_urban rail rail_electric rail_fast ship" speed="16.67" length="11.46" shape="1715.62,260.95 1712.89,272.22"/>
        <lane id=":435833857_0_1" index="1" disallow="tram rail_urban rail rail_electric rail_fast ship" speed="16.67" length="11.46" shape="1718.77,261.52 1716.06,272.65"/>
        <lane id=":435833857_0_2" index="2" disallow="tram rail_urban rail rail_electric rail_fast ship" speed="16.67" length="11.46" shape="1721.92,262.09 1719.23,273.09"/>
    </edge>
    <edge id=":435833857_3" function="internal">
        <lane id=":435833857_3_0" index="0" allow="bus bicycle" speed="3.65" length="1.44" shape="1721.92,262.09 1722.50,263.41"/>
    </edge>
    <edge id=":435833857_8" function="internal">
        <lane id=":435833857_8_0" index="0" allow="bus bicycle" speed="3.65" length="3.23" shape="1722.50,263.41 1723.21,263.95 1724.07,263.70 1725.07,262.66"/>
    </edge>
    <edge id=":435833857_4" function="internal">
        <lane id=":435833857_4_0" index="0" allow="bus bicycle" speed="16.67" length="11.20" shape="1722.41,273.52 1722.98,270.43 1723.66,268.08 1724.38,265.74 1725.07,262.66"/>
    </edge>
    <edge id=":435833857_5" function="internal">
        <lane id=":435833857_5_0" index="0" allow="bus bicycle" speed="3.65" length="1.33" shape="1722.41,273.52 1721.82,272.32"/>
    </edge>
    <edge id=":435833857_9" function="internal">
        <lane id=":435833857_9_0" index="0" allow="bus bicycle" speed="3.65" length="3.34" shape="1721.82,272.32 1721.78,272.22 1721.04,271.72 1720.19,272.01 1719.23,273.09"/>
    </edge>
    <edge id=":435833857_6" function="internal">
        <lane id=":435833857_6_0" index="0" disallow="tram rail_urban rail rail_electric rail_fast ship" speed="10.25" length="11.54" shape="1709.11,261.72 1711.06,264.19 1712.34,266.77 1712.95,269.44 1712.89,272.22"/>
    </edge>
    <edge id=":435833857_7" function="internal">
        <lane id=":435833857_7_0" index="0" allow="bus bicycle" speed="8.19" length="22.19" shape="1709.11,261.72 1715.18,267.17 1719.87,269.14 1723.16,267.64 1725.07,262.66"/>
    </edge>
    <edge id=":435833860_0" function="internal">
        <lane id=":435833860_0_0" index="0" disallow="tram rail_urban rail rail_electric rail_fast ship" speed="15.28" length="24.10" shape="1742.46,285.56 1743.90,278.28 1745.32,273.10 1746.93,268.36 1748.92,262.38"/>
        <lane id=":435833860_0_1" index="1" disallow="tram rail_urban rail rail_electric rail_fast ship" speed="15.28" length="24.54" shape="1739.31,285.03 1740.77,277.59 1742.23,272.27 1743.86,267.44 1745.86,261.42"/>
    </edge>
    <edge id=":435833860_2" function="internal">
        <lane id=":435833860_2_0" index="0" disallow="tram rail_urban rail rail_electric rail_fast ship" speed="16.67" length="24.30" shape="1739.31,285.03 1741.92,260.63"/>
        <lane id=":435833860_2_1" index="1" disallow="tram rail_urban rail rail_electric rail_fast ship" speed="16.67" length="24.30" shape="1736.15,284.50 1738.74,260.33"/>
        <lane id=":435833860_2_2" index="2" disallow="tram rail_urban rail rail_electric rail_fast ship" speed="16.67" length="24.30" shape="1733.00,283.96 1735.55,260.03"/>
    </edge>
    <edge id=":435833867_0" function="internal">
        <lane id=":435833867_0_0" index="0" allow="bus bicycle" speed="16.67" length="19.44" shape="1772.26,230.01 1752.83,230.64"/>
    </edge>
    <edge id=":435833867_1" function="internal">
        <lane id=":435833867_1_0" index="0" allow="bus bicycle" speed="3.65" length="1.44" shape="1772.26,230.01 1771.10,230.87"/>
    </edge>
    <edge id=":435833867_9" function="internal">
        <lane id=":435833867_9_0" index="0" allow="bus bicycle" speed="3.65" length="3.23" shape="1771.10,230.87 1770.73,231.69 1771.17,232.47 1772.41,233.21"/>
    </edge>
    <edge id=":435833867_2" function="internal">
        <lane id=":435833867_2_0" index="0" disallow="tram rail_urban rail rail_electric rail_fast ship" speed="15.28" length="19.98" shape="1756.65,248.92 1760.68,244.81 1763.71,242.01 1767.23,240.34 1772.72,239.60"/>
        <lane id=":435833867_2_1" index="1" disallow="tram rail_urban rail rail_electric rail_fast ship" speed="15.28" length="19.98" shape="1755.12,245.95 1759.47,241.61 1762.81,238.77 1766.66,237.13 1772.56,236.41"/>
    </edge>
    <edge id=":435833867_4" function="internal">
        <lane id=":435833867_4_0" index="0" allow="bus bicycle" speed="7.54" length="20.53" shape="1755.12,245.95 1758.59,240.99 1759.52,235.94 1757.68,232.06 1752.83,230.64"/>
    </edge>
    <edge id=":435833867_5" function="internal">
        <lane id=":435833867_5_0" index="0" disallow="tram rail_urban rail rail_electric rail_fast ship" speed="16.67" length="19.51" shape="1753.19,240.24 1772.72,239.60"/>
        <lane id=":435833867_5_1" index="1" disallow="tram rail_urban rail rail_electric rail_fast ship" speed="16.67" length="19.51" shape="1753.07,237.04 1772.56,236.41"/>
        <lane id=":435833867_5_2" index="2" disallow="tram rail_urban rail rail_electric rail_fast ship" speed="16.67" length="19.51" shape="1752.95,233.84 1772.41,233.21"/>
    </edge>
    <edge id=":435833867_8" function="internal">
        <lane id=":435833867_8_0" index="0" allow="bus bicycle" speed="3.65" length="1.44" shape="1752.95,233.84 1754.11,233.00"/>
    </edge>
    <edge id=":435833867_10" function="internal">
        <lane id=":435833867_10_0" index="0" allow="bus bicycle" speed="3.65" length="3.23" shape="1754.11,233.00 1754.48,232.18 1754.05,231.40 1752.83,230.64"/>
    </edge>
    <edge id=":4459074297_0" function="internal">
        <lane id=":4459074297_0_0" index="0" disallow="tram rail_urban rail rail_electric rail_fast ship" speed="13.89" length="8.21" shape="2199.74,382.39 2200.79,384.56 2201.16,386.21 2201.53,387.86 2202.57,390.03"/>
        <lane id=":4459074297_0_1" index="1" disallow="tram rail_urban rail rail_electric rail_fast ship" speed="13.89" length="8.21" shape="2202.46,380.71 2203.51,382.88 2203.89,384.53 2204.26,386.18 2205.30,388.36"/>
        <lane id=":4459074297_0_2" index="2" disallow="tram rail_urban rail rail_electric rail_fast ship" speed="13.89" length="8.21" shape="2202.46,380.71 2203.94,382.62 2205.25,383.69 2206.56,384.77 2208.03,386.69"/>
    </edge>
    <edge id=":4723198954_0" function="internal">
        <lane id=":4723198954_0_0" index="0" disallow="tram rail_urban rail rail_electric rail_fast ship" speed="16.67" length="10.59" shape="1657.93,217.88 1647.66,219.76"/>
        <lane id=":4723198954_0_1" index="1" disallow="tram rail_urban rail rail_electric rail_fast ship" speed="16.67" length="10.59" shape="1658.57,221.02 1655.46,221.49 1653.29,221.66 1651.16,221.99 1648.18,222.94"/>
        <lane id=":4723198954_0_2" index="2" disallow="tram rail_urban rail rail_electric rail_fast ship" speed="16.67" length="10.59" shape="1659.20,224.15 1656.06,224.65 1653.87,224.84 1651.72,225.19 1648.71,226.16"/>
    </edge>
    <edge id=":4723198954_3" function="internal">
        <lane id=":4723198954_3_0" index="0" disallow="pedestrian tram rail_urban rail rail_electric rail_fast ship" speed="6.97" length="11.67" shape="1655.09,230.50 1653.86,226.51 1652.31,223.92 1650.41,222.72 1648.18,222.94"/>
        <lane id=":4723198954_3_1" index="1" disallow="pedestrian tram rail_urban rail rail_electric rail_fast ship" speed="6.23" length="9.08" shape="1655.09,230.50 1654.16,227.89 1652.79,226.30 1650.98,225.72 1648.71,226.16"/>
    </edge>
    <edge id=":4746046525_0" function="internal">
        <lane id=":4746046525_0_0" index="0" allow="bus bicycle" speed="3.65" length="4.67" shape="1701.10,511.34 1701.94,512.51 1702.76,512.88 1703.54,512.45 1704.30,511.22"/>
    </edge>
    <edge id=":5686784406_0" function="internal">
        <lane id=":5686784406_0_0" index="0" disallow="tram rail_urban rail rail_electric rail_fast ship" speed="3.65" length="4.67" shape="1305.88,323.68 1304.45,323.83 1303.72,324.36 1303.71,325.25 1304.40,326.52"/>
    </edge>
    <edge id=":5686784409_0" function="internal">
        <lane id=":5686784409_0_0" index="0" disallow="tram rail_urban rail rail_electric rail_fast ship" speed="6.17" length="9.05" shape="1338.19,349.34 1335.70,349.82 1333.77,349.34 1332.43,347.88 1331.65,345.46"/>
    </edge>
    <edge id=":5686784409_1" function="internal">
        <lane id=":5686784409_1_0" index="0" disallow="tram rail_urban rail rail_electric rail_fast ship" speed="16.67" length="14.49" shape="1338.19,349.34 1324.51,354.10"/>
        <lane id=":5686784409_1_1" index="1" disallow="tram rail_urban rail rail_electric rail_fast ship" speed="16.67" length="14.49" shape="1339.25,352.36 1325.56,357.13"/>
        <lane id=":5686784409_1_2" index="2" disallow="tram rail_urban rail rail_electric rail_fast ship" speed="16.67" length="14.49" shape="1340.30,355.38 1326.62,360.15"/>
        <lane id=":5686784409_1_3" index="3" disallow="tram rail_urban rail rail_electric rail_fast ship" speed="16.67" length="14.49" shape="1341.35,358.40 1327.67,363.17"/>
    </edge>
    <edge id=":5686784409_5" function="internal">