<?xml version="1.0" encoding="UTF-8"?>

<!-- generated on 2023-07-14 11:56:48 by Eclipse SUMO netconvert Version 1.17.0
<configuration xmlns:xsi="http://www.w3.org/2001/XMLSchema-instance" xsi:noNamespaceSchemaLocation="http://sumo.dlr.de/xsd/netconvertConfiguration.xsd">

    <input>
        <sumo-net-file value="osm.net.xml.gz"/>
    </input>

    <output>
        <output-file value="osm.net.xml"/>
        <output.street-names value="true"/>
    </output>

    <processing>
        <geometry.min-radius.fix.railways value="false"/>
        <geometry.max-grade.fix value="false"/>
        <offset.disable-normalization value="true"/>
        <lefthand value="1"/>
    </processing>

    <junctions>
        <no-turnarounds value="true"/>
        <junctions.corner-detail value="5"/>
        <junctions.limit-turn-speed value="5.50"/>
        <rectangular-lane-cut value="0"/>
    </junctions>

    <pedestrian>
        <walkingareas value="0"/>
    </pedestrian>

</configuration>
-->

<net version="1.16" junctionCornerDetail="5" lefthand="true" limitTurnSpeed="5.50" xmlns:xsi="http://www.w3.org/2001/XMLSchema-instance" xsi:noNamespaceSchemaLocation="http://sumo.dlr.de/xsd/net_file.xsd">

    <location netOffset="-366558.09,-159228.42" convBoundary="0.00,0.00,340.07,278.85" origBoundary="103.800503,1.440270,103.803558,1.442791" projParameter="+proj=utm +zone=48 +ellps=WGS84 +datum=WGS84 +units=m +no_defs"/>

    <type id="highway.bridleway" priority="1" numLanes="1" speed="2.78" allow="pedestrian" oneway="1" width="2.00"/>
    <type id="highway.bus_guideway" priority="1" numLanes="1" speed="27.78" allow="bus" oneway="1"/>
    <type id="highway.cycleway" priority="1" numLanes="1" speed="5.56" allow="bicycle" oneway="0" width="1.00"/>
    <type id="highway.footway" priority="1" numLanes="1" speed="2.78" allow="pedestrian" oneway="1" width="2.00"/>
    <type id="highway.ford" priority="1" numLanes="1" speed="2.78" allow="army" oneway="0"/>
    <type id="highway.living_street" priority="2" numLanes="1" speed="2.78" disallow="tram rail_urban rail rail_electric rail_fast ship" oneway="0"/>
    <type id="highway.motorway" priority="14" numLanes="2" speed="39.44" allow="private emergency authority army vip passenger hov taxi bus coach delivery truck trailer motorcycle evehicle custom1 custom2" oneway="1"/>
    <type id="highway.motorway_link" priority="9" numLanes="1" speed="22.22" allow="private emergency authority army vip passenger hov taxi bus coach delivery truck trailer motorcycle evehicle custom1 custom2" oneway="1"/>
    <type id="highway.path" priority="1" numLanes="1" speed="5.56" allow="pedestrian bicycle" oneway="0" width="2.00"/>
    <type id="highway.pedestrian" priority="1" numLanes="1" speed="2.78" allow="pedestrian" oneway="1" width="2.00"/>
    <type id="highway.primary" priority="12" numLanes="2" speed="27.78" disallow="tram rail_urban rail rail_electric rail_fast ship" oneway="0"/>
    <type id="highway.primary_link" priority="7" numLanes="1" speed="22.22" disallow="tram rail_urban rail rail_electric rail_fast ship" oneway="0"/>
    <type id="highway.raceway" priority="15" numLanes="2" speed="83.33" allow="vip" oneway="0"/>
    <type id="highway.residential" priority="3" numLanes="1" speed="13.89" disallow="tram rail_urban rail rail_electric rail_fast ship" oneway="0"/>
    <type id="highway.secondary" priority="11" numLanes="1" speed="27.78" disallow="tram rail_urban rail rail_electric rail_fast ship" oneway="0"/>
    <type id="highway.secondary_link" priority="6" numLanes="1" speed="22.22" disallow="tram rail_urban rail rail_electric rail_fast ship" oneway="0"/>
    <type id="highway.service" priority="1" numLanes="1" speed="5.56" allow="pedestrian delivery bicycle" oneway="0"/>
    <type id="highway.stairs" priority="1" numLanes="1" speed="1.39" allow="pedestrian" oneway="1" width="2.00"/>
    <type id="highway.step" priority="1" numLanes="1" speed="1.39" allow="pedestrian" oneway="1" width="2.00"/>
    <type id="highway.steps" priority="1" numLanes="1" speed="1.39" allow="pedestrian" oneway="1" width="2.00"/>
    <type id="highway.tertiary" priority="10" numLanes="1" speed="22.22" disallow="tram rail_urban rail rail_electric rail_fast ship" oneway="0"/>
    <type id="highway.tertiary_link" priority="5" numLanes="1" speed="22.22" disallow="tram rail_urban rail rail_electric rail_fast ship" oneway="0"/>
    <type id="highway.track" priority="1" numLanes="1" speed="5.56" allow="pedestrian motorcycle moped bicycle" oneway="0"/>
    <type id="highway.trunk" priority="13" numLanes="2" speed="27.78" disallow="pedestrian bicycle tram rail_urban rail rail_electric rail_fast ship" oneway="0"/>
    <type id="highway.trunk_link" priority="8" numLanes="1" speed="22.22" disallow="pedestrian bicycle tram rail_urban rail rail_electric rail_fast ship" oneway="0"/>
    <type id="highway.unclassified" priority="4" numLanes="1" speed="13.89" disallow="tram rail_urban rail rail_electric rail_fast ship" oneway="0"/>
    <type id="highway.unsurfaced" priority="1" numLanes="1" speed="8.33" disallow="tram rail_urban rail rail_electric rail_fast ship" oneway="0"/>
    <type id="railway.highspeed" priority="21" numLanes="1" speed="69.44" allow="rail_fast" oneway="1"/>
    <type id="railway.light_rail" priority="19" numLanes="1" speed="27.78" allow="rail_urban" oneway="1"/>
    <type id="railway.preserved" priority="16" numLanes="1" speed="27.78" allow="rail" oneway="1"/>
    <type id="railway.rail" priority="20" numLanes="1" speed="44.44" allow="rail" oneway="1"/>
    <type id="railway.subway" priority="18" numLanes="1" speed="27.78" allow="rail_urban" oneway="1"/>
    <type id="railway.tram" priority="17" numLanes="1" speed="13.89" allow="tram" oneway="1"/>

    <edge id=":1307712835_0" function="internal">
        <lane id=":1307712835_0_0" index="0" disallow="tram rail_urban rail rail_electric rail_fast ship" speed="16.67" length="8.29" shape="243.62,157.91 241.55,156.57 240.56,154.99 239.58,153.40 237.54,152.00"/>
        <lane id=":1307712835_0_1" index="1" disallow="tram rail_urban rail rail_electric rail_fast ship" speed="16.67" length="8.29" shape="243.62,157.91 236.30,154.95"/>
        <lane id=":1307712835_0_2" index="2" disallow="tram rail_urban rail rail_electric rail_fast ship" speed="16.67" length="8.29" shape="242.45,160.89 235.06,157.90"/>
        <lane id=":1307712835_0_3" index="3" disallow="tram rail_urban rail rail_electric rail_fast ship" speed="16.67" length="8.29" shape="241.29,163.87 233.83,160.85"/>
        <lane id=":1307712835_0_4" index="4" disallow="tram rail_urban rail rail_electric rail_fast ship" speed="16.67" length="8.29" shape="241.29,163.87 238.78,163.43 236.92,163.87 235.07,164.30 232.59,163.80"/>
    </edge>
    <edge id=":3792494563_0" function="internal">
        <lane id=":3792494563_0_0" index="0" allow="bus bicycle" speed="3.65" length="4.67" shape="14.57,75.36 13.15,75.60 12.46,76.17 12.50,77.07 13.27,78.28"/>
    </edge>
    <edge id=":3792494564_0" function="internal">
        <lane id=":3792494564_0_0" index="0" allow="bus bicycle" speed="16.67" length="8.00" shape="60.02,95.49 52.70,92.25"/>
    </edge>
    <edge id=":3792494564_1" function="internal">
        <lane id=":3792494564_1_0" index="0" disallow="tram rail_urban rail rail_electric rail_fast ship" speed="16.67" length="9.88" shape="48.81,101.02 50.87,103.03 51.17,105.57 51.48,108.11 53.53,110.12"/>
        <lane id=":3792494564_1_1" index="1" disallow="tram rail_urban rail rail_electric rail_fast ship" speed="16.67" length="9.88" shape="50.11,98.10 52.16,100.10 52.47,102.64 52.78,105.19 54.83,107.19"/>
        <lane id=":3792494564_1_2" index="2" disallow="tram rail_urban rail rail_electric rail_fast ship" speed="16.67" length="9.88" shape="51.40,95.17 53.46,97.18 53.77,99.72 54.07,102.26 56.13,104.26"/>
        <lane id=":3792494564_1_3" index="3" disallow="tram rail_urban rail rail_electric rail_fast ship" speed="16.67" length="9.88" shape="51.40,95.17 53.45,96.63 54.41,98.26 55.37,99.88 57.42,101.34"/>
        <lane id=":3792494564_1_4" index="4" disallow="tram rail_urban rail rail_electric rail_fast ship" speed="16.67" length="9.88" shape="51.40,95.17 58.72,98.41"/>
    </edge>
    <edge id=":4607048153_0" function="internal">
        <lane id=":4607048153_0_0" index="0" disallow="tram rail_urban rail rail_electric rail_fast ship" speed="9.24" length="9.28" shape="145.30,105.63 142.71,106.56 140.35,106.96 138.22,106.83 136.33,106.18"/>
    </edge>
    <edge id=":4607048153_1" function="internal">
        <lane id=":4607048153_1_0" index="0" allow="bus bicycle" speed="7.63" length="2.19" shape="145.30,105.63 143.38,106.68"/>
    </edge>
    <edge id=":4607048153_8" function="internal">
        <lane id=":4607048153_8_0" index="0" allow="bus bicycle" speed="7.63" length="17.76" shape="143.38,106.68 138.85,109.13 135.96,112.42 136.62,115.48 140.84,118.34"/>
    </edge>
    <edge id=":4607048153_2" function="internal">
        <lane id=":4607048153_2_0" index="0" disallow="tram rail_urban rail rail_electric rail_fast ship" speed="16.67" length="9.32" shape="144.83,109.60 136.33,106.18"/>
        <lane id=":4607048153_2_1" index="1" disallow="tram rail_urban rail rail_electric rail_fast ship" speed="16.67" length="9.32" shape="143.50,112.51 134.86,109.02"/>
        <lane id=":4607048153_2_2" index="2" disallow="tram rail_urban rail rail_electric rail_fast ship" speed="16.67" length="9.32" shape="142.17,115.43 133.39,111.86"/>
    </edge>
    <edge id=":4607048153_5" function="internal">
        <lane id=":4607048153_5_0" index="0" allow="bus bicycle" speed="3.65" length="1.44" shape="142.17,115.43 140.75,115.65"/>
    </edge>
    <edge id=":4607048153_9" function="internal">
        <lane id=":4607048153_9_0" index="0" allow="bus bicycle" speed="3.65" length="3.23" shape="140.75,115.65 140.05,116.22 140.08,117.11 140.84,118.34"/>
    </edge>
    <edge id=":4607048153_6" function="internal">
        <lane id=":4607048153_6_0" index="0" allow="bus bicycle" speed="16.67" length="9.64" shape="131.92,114.70 134.50,115.92 136.34,116.60 138.20,117.23 140.84,118.34"/>
    </edge>
    <edge id=":4607048153_7" function="internal">
        <lane id=":4607048153_7_0" index="0" allow="bus bicycle" speed="3.65" length="1.44" shape="131.92,114.70 133.35,114.54"/>
    </edge>
    <edge id=":4607048153_10" function="internal">
        <lane id=":4607048153_10_0" index="0" allow="bus bicycle" speed="3.65" length="3.23" shape="133.35,114.54 134.07,114.01 134.09,113.12 133.39,111.86"/>
    </edge>
    <edge id=":4607048156_0" function="internal">
        <lane id=":4607048156_0_0" index="0" disallow="tram rail_urban rail rail_electric rail_fast ship" speed="8.80" length="6.10" shape="156.44,98.49 155.64,100.09 154.89,101.09 153.86,101.82 152.24,102.59"/>
    </edge>
    <edge id=":4607048156_1" function="internal">
        <lane id=":4607048156_1_0" index="0" disallow="tram rail_urban rail rail_electric rail_fast ship" speed="13.89" length="6.61" shape="159.34,99.84 158.32,101.51 157.34,102.48 156.37,103.46 155.38,105.14"/>
        <lane id=":4607048156_1_1" index="1" disallow="tram rail_urban rail rail_electric rail_fast ship" speed="13.89" length="6.61" shape="162.24,101.19 161.23,102.85 160.25,103.81 159.29,104.77 158.30,106.44"/>
        <lane id=":4607048156_1_2" index="2" disallow="tram rail_urban rail rail_electric rail_fast ship" speed="13.89" length="6.61" shape="165.15,102.55 164.14,104.18 163.17,105.13 162.20,106.09 161.23,107.74"/>
    </edge>
    <edge id=":4607048159_0" function="internal">
        <lane id=":4607048159_0_0" index="0" disallow="tram rail_urban rail rail_electric rail_fast ship" speed="9.42" length="6.60" shape="182.87,129.09 181.19,128.22 180.22,127.30 179.53,126.08 178.67,124.31"/>
    </edge>
    <edge id=":4607048159_1" function="internal">
        <lane id=":4607048159_1_0" index="0" disallow="tram rail_urban rail rail_electric rail_fast ship" speed="16.67" length="7.73" shape="181.64,132.04 179.78,130.91 178.79,129.69 177.81,128.45 176.00,127.23"/>
        <lane id=":4607048159_1_1" index="1" disallow="tram rail_urban rail rail_electric rail_fast ship" speed="16.67" length="7.73" shape="180.40,134.99 178.51,133.84 177.48,132.61 176.47,131.36 174.62,130.11"/>
        <lane id=":4607048159_1_2" index="2" disallow="tram rail_urban rail rail_electric rail_fast ship" speed="16.67" length="7.73" shape="179.16,137.94 177.23,136.77 176.17,135.53 175.14,134.26 173.24,133.00"/>
        <lane id=":4607048159_1_3" index="3" disallow="tram rail_urban rail rail_electric rail_fast ship" speed="16.67" length="7.73" shape="177.93,140.89 175.95,139.71 174.87,138.46 173.80,137.17 171.87,135.89"/>
    </edge>
    <edge id=":4607048160_0" function="internal">
        <lane id=":4607048160_0_0" index="0" disallow="tram rail_urban rail rail_electric rail_fast ship" speed="15.19" length="15.77" shape="165.80,154.93 169.25,154.24 172.64,154.09 176.45,154.73 181.15,156.42"/>
    </edge>
    <edge id=":4607048160_1" function="internal">
        <lane id=":4607048160_1_0" index="0" disallow="tram rail_urban rail rail_electric rail_fast ship" speed="16.67" length="15.78" shape="166.94,149.25 181.15,156.42"/>
        <lane id=":4607048160_1_1" index="1" disallow="tram rail_urban rail rail_electric rail_fast ship" speed="16.67" length="15.78" shape="168.33,146.37 182.42,153.48"/>
        <lane id=":4607048160_1_2" index="2" disallow="tram rail_urban rail rail_electric rail_fast ship" speed="16.67" length="15.78" shape="169.73,143.49 183.69,150.54"/>
    </edge>
    <edge id=":4738663075_0" function="internal">
        <lane id=":4738663075_0_0" index="0" allow="bus bicycle" speed="3.65" length="4.67" shape="0.64,48.43 -0.78,48.69 -1.47,49.26 -1.42,50.15 -0.64,51.37"/>
    </edge>
    <edge id=":4738789711_0" function="internal">
        <lane id=":4738789711_0_0" index="0" disallow="tram rail_urban rail rail_electric rail_fast ship" speed="13.89" length="14.80" shape="174.17,111.44 173.56,108.02 173.06,104.84 173.20,101.33 174.52,96.93"/>
    </edge>
    <edge id=":4738789711_1" function="internal">
        <lane id=":4738789711_1_0" index="0" disallow="tram rail_urban rail rail_electric rail_fast ship" speed="13.89" length="14.96" shape="169.15,110.84 174.52,96.93"/>
        <lane id=":4738789711_1_1" index="1" disallow="tram rail_urban rail rail_electric rail_fast ship" speed="13.89" length="14.96" shape="166.16,109.70 171.57,95.70"/>
    </edge>
    <edge id=":4738789714_0" function="internal">
        <lane id=":4738789714_0_0" index="0" disallow="tram rail_urban rail rail_electric rail_fast ship" speed="10.77" length="6.83" shape="146.67,166.87 147.58,165.13 148.55,164.15 149.80,163.41 151.56,162.38"/>
    </edge>
    <edge id=":4738789714_1" function="internal">
        <lane id=":4738789714_1_0" index="0" disallow="tram rail_urban rail rail_electric rail_fast ship" speed="13.89" length="2.95" shape="143.72,165.62 144.35,168.62"/>
        <lane id=":4738789714_1_1" index="1" disallow="tram rail_urban rail rail_electric rail_fast ship" speed="13.89" length="2.95" shape="140.77,164.37 141.46,167.24"/>
        <lane id=":4738789714_1_2" index="2" disallow="tram rail_urban rail rail_electric rail_fast ship" speed="13.89" length="2.95" shape="137.82,163.13 138.57,165.87"/>
    </edge>
    <edge id=":6112264636_0" function="internal">
        <lane id=":6112264636_0_0" index="0" disallow="tram rail_urban rail rail_electric rail_fast ship" speed="13.89" length="8.40" shape="180.60,51.86 179.20,53.94 177.60,54.93 175.99,55.92 174.57,57.99"/>
        <lane id=":6112264636_0_1" index="1" disallow="tram rail_urban rail rail_electric rail_fast ship" speed="13.89" length="8.40" shape="180.60,51.86 177.52,59.24"/>
        <lane id=":6112264636_0_2" index="2" disallow="tram rail_urban rail rail_electric rail_fast ship" speed="13.89" length="8.40" shape="183.56,53.09 180.47,60.48"/>
        <lane id=":6112264636_0_3" index="3" disallow="tram rail_urban rail rail_electric rail_fast ship" speed="13.89" length="8.40" shape="183.56,53.09 183.08,55.56 183.50,57.41 183.92,59.25 183.42,61.72"/>
    </edge>
    <edge id=":cluster_244492323_244492382_4607048167_4607048170_#4more_0" function="internal">
        <lane id=":cluster_244492323_244492382_4607048167_4607048170_#4more_0_0" index="0" allow="bus bicycle" speed="11.20" length="28.78" shape="154.25,107.68 149.11,118.33 144.68,125.61 140.96,129.50 137.96,130.02"/>
    </edge>
    <edge id=":cluster_244492323_244492382_4607048167_4607048170_#4more_1" function="internal">
        <lane id=":cluster_244492323_244492382_4607048167_4607048170_#4more_1_0" index="0" disallow="tram rail_urban rail rail_electric rail_fast ship" speed="13.89" length="69.14" shape="154.25,107.68 126.21,170.80"/>
        <lane id=":cluster_244492323_244492382_4607048167_4607048170_#4more_1_1" index="1" disallow="tram rail_urban rail rail_electric rail_fast ship" speed="13.89" length="69.14" shape="157.21,108.90 129.11,172.14"/>
    </edge>
    <edge id=":cluster_244492323_244492382_4607048167_4607048170_#4more_3" function="internal">
        <lane id=":cluster_244492323_244492382_4607048167_4607048170_#4more_3_0" index="0" disallow="tram rail_urban rail rail_electric rail_fast ship" speed="12.37" length="18.49" shape="160.17,110.11 156.47,120.89 156.00,127.97"/>
    </edge>
    <edge id=":cluster_244492323_244492382_4607048167_4607048170_#4more_4" function="internal">
        <lane id=":cluster_244492323_244492382_4607048167_4607048170_#4more_4_0" index="0" disallow="tram rail_urban rail rail_electric rail_fast ship" speed="4.46" length="4.57" shape="160.17,110.11 160.65,112.52 161.65,113.67 162.25,113.62"/>
    </edge>
    <edge id=":cluster_244492323_244492382_4607048167_4607048170_#4more_28" function="internal">
        <lane id=":cluster_244492323_244492382_4607048167_4607048170_#4more_28_0" index="0" disallow="tram rail_urban rail rail_electric rail_fast ship" speed="12.37" length="16.02" shape="156.00,127.97 155.90,129.60 158.45,136.23 164.14,140.78"/>
    </edge>
    <edge id=":cluster_244492323_244492382_4607048167_4607048170_#4more_29" function="internal">
        <lane id=":cluster_244492323_244492382_4607048167_4607048170_#4more_29_0" index="0" disallow="tram rail_urban rail rail_electric rail_fast ship" speed="4.46" length="3.38" shape="162.25,113.62 163.17,113.56 165.21,112.18"/>
    </edge>
    <edge id=":cluster_244492323_244492382_4607048167_4607048170_#4more_5" function="internal">
        <lane id=":cluster_244492323_244492382_4607048167_4607048170_#4more_5_0" index="0" disallow="tram rail_urban rail rail_electric rail_fast ship" speed="16.67" length="28.84" shape="171.71,125.18 164.17,121.12 159.31,117.77 154.43,114.47 146.84,110.52"/>
        <lane id=":cluster_244492323_244492382_4607048167_4607048170_#4more_5_1" index="1" disallow="tram rail_urban rail rail_electric rail_fast ship" speed="16.67" length="28.84" shape="170.31,128.06 162.80,124.01 157.95,120.67 153.08,117.37 145.51,113.43"/>
        <lane id=":cluster_244492323_244492382_4607048167_4607048170_#4more_5_2" index="2" disallow="tram rail_urban rail rail_electric rail_fast ship" speed="16.67" length="28.84" shape="168.92,130.94 161.42,126.89 156.59,123.57 151.73,120.28 144.18,116.35"/>
    </edge>
    <edge id=":cluster_244492323_244492382_4607048167_4607048170_#4more_8" function="internal">
        <lane id=":cluster_244492323_244492382_4607048167_4607048170_#4more_8_0" index="0" allow="bus bicycle" speed="16.67" length="31.44" shape="168.92,130.94 158.82,128.27 149.91,128.74 142.76,130.08 137.96,130.02"/>
    </edge>
    <edge id=":cluster_244492323_244492382_4607048167_4607048170_#4more_9" function="internal">
        <lane id=":cluster_244492323_244492382_4607048167_4607048170_#4more_9_0" index="0" disallow="tram rail_urban rail rail_electric rail_fast ship" speed="15.28" length="13.92" shape="167.52,133.82 158.78,133.20 154.48,136.05"/>
    </edge>
    <edge id=":cluster_244492323_244492382_4607048167_4607048170_#4more_10" function="internal">
        <lane id=":cluster_244492323_244492382_4607048167_4607048170_#4more_10_0" index="0" disallow="tram rail_urban rail rail_electric rail_fast ship" speed="5.10" length="8.08" shape="167.52,133.82 164.06,134.29 162.35,135.61 162.37,137.77 162.51,138.00"/>
    </edge>
    <edge id=":cluster_244492323_244492382_4607048167_4607048170_#4more_30" function="internal">
        <lane id=":cluster_244492323_244492382_4607048167_4607048170_#4more_30_0" index="0" disallow="tram rail_urban rail rail_electric rail_fast ship" speed="15.28" length="44.72" shape="154.48,136.05 149.47,139.37 139.58,152.36 129.11,172.14"/>
    </edge>
    <edge id=":cluster_244492323_244492382_4607048167_4607048170_#4more_31" function="internal">
        <lane id=":cluster_244492323_244492382_4607048167_4607048170_#4more_31_0" index="0" disallow="tram rail_urban rail rail_electric rail_fast ship" speed="5.10" length="3.22" shape="162.51,138.00 164.14,140.78"/>
    </edge>
    <edge id=":cluster_244492323_244492382_4607048167_4607048170_#4more_11" function="internal">
        <lane id=":cluster_244492323_244492382_4607048167_4607048170_#4more_11_0" index="0" disallow="tram rail_urban rail rail_electric rail_fast ship" speed="13.89" length="59.86" shape="144.43,168.44 150.41,155.46 157.43,139.37 163.87,124.04 168.17,113.40"/>
        <lane id=":cluster_244492323_244492382_4607048167_4607048170_#4more_11_1" index="1" disallow="tram rail_urban rail rail_electric rail_fast ship" speed="13.89" length="59.86" shape="141.54,167.06 147.51,154.11 154.50,138.07 160.93,122.80 165.21,112.18"/>
    </edge>
    <edge id=":cluster_244492323_244492382_4607048167_4607048170_#4more_13" function="internal">
        <lane id=":cluster_244492323_244492382_4607048167_4607048170_#4more_13_0" index="0" disallow="tram rail_urban rail rail_electric rail_fast ship" speed="15.28" length="33.21" shape="138.65,165.69 147.37,145.44 150.20,134.63"/>
    </edge>
    <edge id=":cluster_244492323_244492382_4607048167_4607048170_#4more_14" function="internal">
        <lane id=":cluster_244492323_244492382_4607048167_4607048170_#4more_14_0" index="0" allow="bus bicycle" speed="12.91" length="24.97" shape="138.65,165.69 143.93,152.55 145.57,142.23 145.48,141.87"/>
    </edge>
    <edge id=":cluster_244492323_244492382_4607048167_4607048170_#4more_15" function="internal">
        <lane id=":cluster_244492323_244492382_4607048167_4607048170_#4more_15_0" index="0" disallow="tram rail_urban rail rail_electric rail_fast ship" speed="6.06" length="4.47" shape="138.65,165.69 134.51,163.99"/>
    </edge>
    <edge id=":cluster_244492323_244492382_4607048167_4607048170_#4more_32" function="internal">
        <lane id=":cluster_244492323_244492382_4607048167_4607048170_#4more_32_0" index="0" disallow="tram rail_urban rail rail_electric rail_fast ship" speed="15.28" length="23.40" shape="150.20,134.63 151.41,129.98 150.80,119.31 145.51,113.43"/>
    </edge>
    <edge id=":cluster_244492323_244492382_4607048167_4607048170_#4more_33" function="internal">
        <lane id=":cluster_244492323_244492382_4607048167_4607048170_#4more_33_0" index="0" allow="bus bicycle" speed="12.91" length="14.73" shape="145.48,141.87 143.58,134.72 137.96,130.02"/>
    </edge>
    <edge id=":cluster_244492323_244492382_4607048167_4607048170_#4more_34" function="internal">
        <lane id=":cluster_244492323_244492382_4607048167_4607048170_#4more_34_0" index="0" disallow="tram rail_urban rail rail_electric rail_fast ship" speed="6.06" length="12.35" shape="134.51,163.99 133.85,163.72 130.65,164.14 129.08,166.95 129.11,172.14"/>
    </edge>
    <edge id=":cluster_244492323_244492382_4607048167_4607048170_#4more_16" function="internal">
        <lane id=":cluster_244492323_244492382_4607048167_4607048170_#4more_16_0" index="0" disallow="tram rail_urban rail rail_electric rail_fast ship" speed="10.99" length="28.06" shape="131.32,144.58 133.19,147.19 132.97,152.43 130.64,160.30 126.21,170.80"/>
    </edge>
    <edge id=":cluster_244492323_244492382_4607048167_4607048170_#4more_17" function="internal">
        <lane id=":cluster_244492323_244492382_4607048167_4607048170_#4more_17_0" index="0" disallow="tram rail_urban rail rail_electric rail_fast ship" speed="16.67" length="30.78" shape="131.32,144.58 139.92,146.54 146.43,145.39 152.89,144.33 161.34,146.54"/>
        <lane id=":cluster_244492323_244492382_4607048167_4607048170_#4more_17_1" index="1" disallow="tram rail_urban rail rail_electric rail_fast ship" speed="16.67" length="30.78" shape="132.65,141.67 141.27,143.63 147.80,142.50 154.28,141.45 162.74,143.66"/>
        <lane id=":cluster_244492323_244492382_4607048167_4607048170_#4more_17_2" index="2" disallow="tram rail_urban rail rail_electric rail_fast ship" speed="16.67" length="30.78" shape="133.98,138.75 142.62,140.73 149.18,139.61 155.68,138.56 164.14,140.78"/>
    </edge>
    <edge id=":cluster_244492323_244492382_4607048167_4607048170_#4more_20" function="internal">
        <lane id=":cluster_244492323_244492382_4607048167_4607048170_#4more_20_0" index="0" disallow="tram rail_urban rail rail_electric rail_fast ship" speed="13.35" length="20.42" shape="135.30,135.84 143.86,137.33 151.69,133.88 153.75,131.46"/>
    </edge>
    <edge id=":cluster_244492323_244492382_4607048167_4607048170_#4more_21" function="internal">
        <lane id=":cluster_244492323_244492382_4607048167_4607048170_#4more_21_0" index="0" disallow="tram rail_urban rail rail_electric rail_fast ship" speed="6.27" length="1.85" shape="136.63,132.93 137.39,131.25"/>
    </edge>
    <edge id=":cluster_244492323_244492382_4607048167_4607048170_#4more_22" function="internal">
        <lane id=":cluster_244492323_244492382_4607048167_4607048170_#4more_22_0" index="0" allow="bus bicycle" speed="3.65" length="4.18" shape="136.63,132.93 138.05,132.70 138.75,132.14 138.72,131.24 138.22,130.44"/>
    </edge>
    <edge id=":cluster_244492323_244492382_4607048167_4607048170_#4more_35" function="internal">
        <lane id=":cluster_244492323_244492382_4607048167_4607048170_#4more_35_0" index="0" disallow="tram rail_urban rail rail_electric rail_fast ship" speed="13.35" length="22.59" shape="153.75,131.46 158.81,125.50 165.21,112.18"/>
    </edge>
    <edge id=":cluster_244492323_244492382_4607048167_4607048170_#4more_36" function="internal">
        <lane id=":cluster_244492323_244492382_4607048167_4607048170_#4more_36_0" index="0" disallow="tram rail_urban rail rail_electric rail_fast ship" speed="6.27" length="16.38" shape="137.39,131.25 144.18,116.35"/>
    </edge>
    <edge id=":cluster_244492323_244492382_4607048167_4607048170_#4more_37" function="internal">
        <lane id=":cluster_244492323_244492382_4607048167_4607048170_#4more_37_0" index="0" allow="bus bicycle" speed="3.65" length="0.49" shape="138.22,130.44 137.96,130.02"/>
    </edge>
    <edge id=":cluster_244492323_244492382_4607048167_4607048170_#4more_23" function="internal">
        <lane id=":cluster_244492323_244492382_4607048167_4607048170_#4more_23_0" index="0" allow="bus bicycle" speed="5.20" length="11.82" shape="142.86,119.26 137.96,130.02"/>
    </edge>
    <edge id=":cluster_244492323_244492382_4607048167_4607048170_#4more_24" function="internal">
        <lane id=":cluster_244492323_244492382_4607048167_4607048170_#4more_24_0" index="0" allow="bus bicycle" speed="15.28" length="55.08" shape="142.86,119.26 144.06,123.50 141.69,133.51 135.74,149.27 126.21,170.80"/>
    </edge>
    <edge id=":cluster_244492323_244492382_4607048167_4607048170_#4more_25" function="internal">
        <lane id=":cluster_244492323_244492382_4607048167_4607048170_#4more_25_0" index="0" allow="bus bicycle" speed="16.67" length="31.96" shape="142.86,119.26 145.98,123.03 149.44,129.78 154.58,137.38 162.74,143.66"/>
    </edge>
    <edge id=":cluster_244492323_244492382_4607048167_4607048170_#4more_26" function="internal">
        <lane id=":cluster_244492323_244492382_4607048167_4607048170_#4more_26_0" index="0" allow="bus bicycle" speed="10.63" length="4.03" shape="142.86,119.26 146.70,120.47"/>
    </edge>
    <edge id=":cluster_244492323_244492382_4607048167_4607048170_#4more_27" function="internal">
        <lane id=":cluster_244492323_244492382_4607048167_4607048170_#4more_27_0" index="0" allow="bus bicycle" speed="3.65" length="1.44" shape="142.86,119.26 144.28,119.03"/>
    </edge>
    <edge id=":cluster_244492323_244492382_4607048167_4607048170_#4more_38" function="internal">
        <lane id=":cluster_244492323_244492382_4607048167_4607048170_#4more_38_0" index="0" allow="bus bicycle" speed="10.63" length="23.04" shape="146.70,120.47 150.52,121.68 156.80,121.31 161.70,118.14 165.21,112.18"/>
    </edge>
    <edge id=":cluster_244492323_244492382_4607048167_4607048170_#4more_39" function="internal">
        <lane id=":cluster_244492323_244492382_4607048167_4607048170_#4more_39_0" index="0" allow="bus bicycle" speed="3.65" length="3.23" shape="144.28,119.03 144.98,118.46 144.94,117.57 144.18,116.35"/>
    </edge>

    <edge id="-176204623#1" from="4607048153" to="cluster_244492323_244492382_4607048167_4607048170_#4more" name="Woodlands Avenue 7" priority="12" type="highway.primary" shape="125.36,109.50 145.07,118.51 151.37,121.38">
        <lane id="-176204623#1_0" index="0" allow="bus bicycle" speed="16.67" length="2.22" shape="140.84,118.34 142.86,119.26">
            <param key="origId" value="176204623"/>
        </lane>
        <param key="origTo" value="244492323"/>
    </edge>