<?xml version="1.0" encoding="UTF-8"?>

<!-- generated on 2023-07-13 23:27:07.987638 by osmWebWizard.py v1_17_0+0000-737931d58da
<configuration>
    <net-file value="C:\Users\swaya\Sumo\2023-07-13-23-27-06\osm.net.xml.gz"/>
    <output-trip-file value="C:\Users\swaya\Sumo\2023-07-13-23-27-06\osm.passenger.trips.xml"/>
    <route-file value="C:\Users\swaya\Sumo\2023-07-13-23-27-06\osm.passenger.rou.xml"/>
    <prefix value="veh"/>
    <trip-attributes value="departLane=&quot;best&quot;"/>
    <fringe-start-attributes value="departSpeed=&quot;max&quot;"/>
    <lanes value="True"/>
    <fringe-factor value="0.5"/>
    <allow-fringe.min-length value="1000.0"/>
    <min-distance value="300.0"/>
    <min-distance.fringe value="10.0"/>
    <vehicle-class value="passenger"/>
    <remove-loops value="True"/>
    <via-edge-types value="highway.motorway,highway.motorway_link,highway.trunk_link,highway.primary_link,highway.secondary_link,highway.tertiary_link"/>
    <validate value="True"/>
    <insertion-density value="0.2"/>
</configuration>
-->

<!-- generated on 2023-07-13 23:27:07 by Eclipse SUMO duarouter Version 1.17.0
<configuration xmlns:xsi="http://www.w3.org/2001/XMLSchema-instance" xsi:noNamespaceSchemaLocation="http://sumo.dlr.de/xsd/duarouterConfiguration.xsd">

    <input>
        <net-file value="C:\Users\swaya\Sumo\2023-07-13-23-27-06\osm.net.xml.gz"/>
        <route-files value="C:\Users\swaya\Sumo\2023-07-13-23-27-06\osm.passenger.trips.xml"/>
    </input>

    <output>
        <output-file value="C:\Users\swaya\Sumo\2023-07-13-23-27-06\osm.passenger.trips.xml.tmp"/>
        <alternatives-output value="NUL"/>
        <write-trips value="true"/>
    </output>

    <processing>
        <remove-loops value="true"/>
    </processing>

    <time>
        <begin value="0.0"/>
        <end value="3600.0"/>
    </time>

    <report>
        <no-warnings value="true"/>
        <ignore-errors value="true"/>
        <no-step-log value="true"/>
    </report>

</configuration>
-->

<routes xmlns:xsi="http://www.w3.org/2001/XMLSchema-instance" xsi:noNamespaceSchemaLocation="http://sumo.dlr.de/xsd/routes_file.xsd">
    <vType id="veh_passenger" vClass="passenger"/>
    <trip id="veh0" type="veh_passenger" depart="0.00" departLane="best" from="637688342" to="22775385"/>
    <trip id="veh1" type="veh_passenger" depart="2445.38" departLane="best" departSpeed="max" from="655493880" to="637675019"/>
</routes>
