<?xml version="1.0" encoding="UTF-8"?>

<!-- generated on 2023-07-14 10:52:01 by Eclipse SUMO netconvert Version 1.17.0
<configuration xmlns:xsi="http://www.w3.org/2001/XMLSchema-instance" xsi:noNamespaceSchemaLocation="http://sumo.dlr.de/xsd/netconvertConfiguration.xsd">

    <input>
        <sumo-net-file value="osm.net.xml.gz"/>
    </input>

    <output>
        <output-file value="osm.net.xml"/>
        <output.street-names value="true"/>
    </output>

    <processing>
        <geometry.min-radius.fix.railways value="false"/>
        <geometry.max-grade.fix value="false"/>
        <offset.disable-normalization value="true"/>
        <lefthand value="1"/>
    </processing>

    <junctions>
        <no-turnarounds value="true"/>
        <junctions.corner-detail value="5"/>
        <junctions.limit-turn-speed value="5.50"/>
        <rectangular-lane-cut value="0"/>
    </junctions>

    <pedestrian>
        <walkingareas value="0"/>
    </pedestrian>

</configuration>
-->

<net version="1.16" junctionCornerDetail="5" lefthand="true" limitTurnSpeed="5.50" xmlns:xsi="http://www.w3.org/2001/XMLSchema-instance" xsi:noNamespaceSchemaLocation="http://sumo.dlr.de/xsd/net_file.xsd">

    <location netOffset="-365639.41,-157103.23" convBoundary="0.00,0.00,657.86,569.85" origBoundary="103.792255,1.421045,103.798166,1.426199" projParameter="+proj=utm +zone=48 +ellps=WGS84 +datum=WGS84 +units=m +no_defs"/>

    <type id="highway.bridleway" priority="1" numLanes="1" speed="2.78" allow="pedestrian" oneway="1" width="2.00"/>
    <type id="highway.bus_guideway" priority="1" numLanes="1" speed="27.78" allow="bus" oneway="1"/>
    <type id="highway.cycleway" priority="1" numLanes="1" speed="5.56" allow="bicycle" oneway="0" width="1.00"/>
    <type id="highway.footway" priority="1" numLanes="1" speed="2.78" allow="pedestrian" oneway="1" width="2.00"/>
    <type id="highway.ford" priority="1" numLanes="1" speed="2.78" allow="army" oneway="0"/>
    <type id="highway.living_street" priority="2" numLanes="1" speed="2.78" disallow="tram rail_urban rail rail_electric rail_fast ship" oneway="0"/>
    <type id="highway.motorway" priority="14" numLanes="2" speed="39.44" allow="private emergency authority army vip passenger hov taxi bus coach delivery truck trailer motorcycle evehicle custom1 custom2" oneway="1"/>
    <type id="highway.motorway_link" priority="9" numLanes="1" speed="22.22" allow="private emergency authority army vip passenger hov taxi bus coach delivery truck trailer motorcycle evehicle custom1 custom2" oneway="1"/>
    <type id="highway.path" priority="1" numLanes="1" speed="5.56" allow="pedestrian bicycle" oneway="0" width="2.00"/>
    <type id="highway.pedestrian" priority="1" numLanes="1" speed="2.78" allow="pedestrian" oneway="1" width="2.00"/>
    <type id="highway.primary" priority="12" numLanes="2" speed="27.78" disallow="tram rail_urban rail rail_electric rail_fast ship" oneway="0"/>
    <type id="highway.primary_link" priority="7" numLanes="1" speed="22.22" disallow="tram rail_urban rail rail_electric rail_fast ship" oneway="0"/>
    <type id="highway.raceway" priority="15" numLanes="2" speed="83.33" allow="vip" oneway="0"/>
    <type id="highway.residential" priority="3" numLanes="1" speed="13.89" disallow="tram rail_urban rail rail_electric rail_fast ship" oneway="0"/>
    <type id="highway.secondary" priority="11" numLanes="1" speed="27.78" disallow="tram rail_urban rail rail_electric rail_fast ship" oneway="0"/>
    <type id="highway.secondary_link" priority="6" numLanes="1" speed="22.22" disallow="tram rail_urban rail rail_electric rail_fast ship" oneway="0"/>
    <type id="highway.service" priority="1" numLanes="1" speed="5.56" allow="pedestrian delivery bicycle" oneway="0"/>
    <type id="highway.stairs" priority="1" numLanes="1" speed="1.39" allow="pedestrian" oneway="1" width="2.00"/>
    <type id="highway.step" priority="1" numLanes="1" speed="1.39" allow="pedestrian" oneway="1" width="2.00"/>
    <type id="highway.steps" priority="1" numLanes="1" speed="1.39" allow="pedestrian" oneway="1" width="2.00"/>
    <type id="highway.tertiary" priority="10" numLanes="1" speed="22.22" disallow="tram rail_urban rail rail_electric rail_fast ship" oneway="0"/>
    <type id="highway.tertiary_link" priority="5" numLanes="1" speed="22.22" disallow="tram rail_urban rail rail_electric rail_fast ship" oneway="0"/>
    <type id="highway.track" priority="1" numLanes="1" speed="5.56" allow="pedestrian motorcycle moped bicycle" oneway="0"/>
    <type id="highway.trunk" priority="13" numLanes="2" speed="27.78" disallow="pedestrian bicycle tram rail_urban rail rail_electric rail_fast ship" oneway="0"/>
    <type id="highway.trunk_link" priority="8" numLanes="1" speed="22.22" disallow="pedestrian bicycle tram rail_urban rail rail_electric rail_fast ship" oneway="0"/>
    <type id="highway.unclassified" priority="4" numLanes="1" speed="13.89" disallow="tram rail_urban rail rail_electric rail_fast ship" oneway="0"/>
    <type id="highway.unsurfaced" priority="1" numLanes="1" speed="8.33" disallow="tram rail_urban rail rail_electric rail_fast ship" oneway="0"/>
    <type id="railway.highspeed" priority="21" numLanes="1" speed="69.44" allow="rail_fast" oneway="1"/>
    <type id="railway.light_rail" priority="19" numLanes="1" speed="27.78" allow="rail_urban" oneway="1"/>
    <type id="railway.preserved" priority="16" numLanes="1" speed="27.78" allow="rail" oneway="1"/>
    <type id="railway.rail" priority="20" numLanes="1" speed="44.44" allow="rail" oneway="1"/>
    <type id="railway.subway" priority="18" numLanes="1" speed="27.78" allow="rail_urban" oneway="1"/>
    <type id="railway.tram" priority="17" numLanes="1" speed="13.89" allow="tram" oneway="1"/>

    <edge id=":1483463571_0" function="internal">
        <lane id=":1483463571_0_0" index="0" allow="private emergency authority army vip passenger hov taxi bus coach delivery truck trailer motorcycle evehicle custom1 custom2" speed="16.66" length="34.55" shape="336.69,185.43 330.73,179.63 323.67,173.66 316.16,168.33 308.89,164.46"/>
        <lane id=":1483463571_0_1" index="1" allow="private emergency authority army vip passenger hov taxi bus coach delivery truck trailer motorcycle evehicle custom1 custom2" speed="16.66" length="34.55" shape="334.66,187.95 328.84,182.22 322.05,176.40 314.82,171.22 307.67,167.42"/>
    </edge>
    <edge id=":1483463571_2" function="internal">
        <lane id=":1483463571_2_0" index="0" allow="private emergency authority army vip passenger hov taxi bus coach delivery truck trailer motorcycle evehicle custom1 custom2" speed="16.66" length="34.05" shape="314.62,160.44 316.15,168.43 319.56,176.85 324.09,184.82 328.99,191.50"/>
        <lane id=":1483463571_2_1" index="1" allow="private emergency authority army vip passenger hov taxi bus coach delivery truck trailer motorcycle evehicle custom1 custom2" speed="16.66" length="34.05" shape="317.81,160.30 319.31,168.09 322.65,176.07 327.11,183.60 331.98,190.08"/>
    </edge>
    <edge id=":440588383_0" function="internal">
        <lane id=":440588383_0_0" index="0" allow="private emergency authority army vip passenger hov taxi bus coach delivery truck trailer motorcycle evehicle custom1 custom2" speed="16.66" length="4.89" shape="371.46,247.31 372.59,248.22 373.36,248.85 374.08,249.53 375.07,250.60"/>
    </edge>
    <edge id=":440588383_1" function="internal">
        <lane id=":440588383_1_0" index="0" disallow="tram rail_urban rail rail_electric rail_fast ship" speed="19.44" length="14.58" shape="367.76,237.52 377.45,248.47"/>
        <lane id=":440588383_1_1" index="1" disallow="tram rail_urban rail rail_electric rail_fast ship" speed="19.44" length="14.58" shape="370.20,235.46 379.84,246.34"/>
    </edge>
    <edge id=":440588384_0" function="internal">
        <lane id=":440588384_0_0" index="0" allow="private emergency authority army vip passenger hov taxi bus coach delivery truck trailer motorcycle evehicle custom1 custom2" speed="16.66" length="23.81" shape="421.56,272.20 417.08,266.48 414.47,261.91 412.47,257.35 409.79,251.65"/>
        <lane id=":440588384_0_1" index="1" allow="private emergency authority army vip passenger hov taxi bus coach delivery truck trailer motorcycle evehicle custom1 custom2" speed="16.66" length="24.58" shape="419.15,274.31 414.49,268.36 411.75,263.59 409.66,258.88 406.94,253.12"/>
    </edge>
    <edge id=":440588384_2" function="internal">
        <lane id=":440588384_2_0" index="0" disallow="tram rail_urban rail rail_electric rail_fast ship" speed="19.44" length="24.35" shape="419.15,274.31 403.45,255.61"/>
        <lane id=":440588384_2_1" index="1" disallow="tram rail_urban rail rail_electric rail_fast ship" speed="19.44" length="24.35" shape="416.74,276.42 401.13,257.82"/>
    </edge>

    <edge id="22775385" from="440588383" to="6011516864" name="Woodlands Avenue 12" priority="12" type="highway.primary" spreadType="center" shape="406.57,281.12 448.37,328.00 558.16,454.76 657.86,569.85">
        <lane id="22775385_0" index="0" disallow="tram rail_urban rail rail_electric rail_fast ship" speed="19.44" length="426.52" shape="375.07,250.60 445.97,330.11 555.74,456.86 655.44,571.95">
            <param key="origId" value="22775385"/>
        </lane>
        <lane id="22775385_1" index="1" disallow="tram rail_urban rail rail_electric rail_fast ship" speed="19.44" length="426.52" shape="377.45,248.47 448.37,328.00 558.16,454.76 657.86,569.85">
            <param key="origId" value="22775385"/>
        </lane>
        <lane id="22775385_2" index="2" disallow="tram rail_urban rail rail_electric rail_fast ship" speed="19.44" length="426.52" shape="379.84,246.34 450.77,325.89 560.58,452.66 660.28,567.75">
            <param key="origId" value="22775385"/>
        </lane>
    </edge>
    <edge id="234873075" from="245573431" to="6011409289" name="Seletar Expressway" priority="14" type="highway.motorway" spreadType="center" shape="558.28,14.80 508.17,45.38 458.67,74.43 363.55,125.20 245.99,188.03 30.96,304.87">
        <lane id="234873075_0" index="0" allow="private emergency authority army vip passenger hov taxi bus coach delivery truck trailer motorcycle evehicle custom1 custom2" speed="25.00" length="601.94" shape="556.61,12.07 506.53,42.63 457.11,71.64 362.04,122.38 244.47,185.21 29.43,302.06">
            <param key="origId" value="234873075 37584632 637675021"/>
        </lane>
        <lane id="234873075_1" index="1" allow="private emergency authority army vip passenger hov taxi bus coach delivery truck trailer motorcycle evehicle custom1 custom2" speed="25.00" length="601.94" shape="558.28,14.80 508.17,45.38 458.67,74.43 363.55,125.20 245.99,188.03 30.96,304.87">
            <param key="origId" value="234873075 37584632 637675021"/>
        </lane>
        <lane id="234873075_2" index="2" allow="private emergency authority army vip passenger hov taxi bus coach delivery truck trailer motorcycle evehicle custom1 custom2" speed="25.00" length="601.94" shape="559.95,17.53 509.81,48.13 460.23,77.22 365.06,128.02 247.51,190.85 32.49,307.68">
            <param key="origId" value="234873075 37584632 637675021"/>
        </lane>
        <param key="ref" value="SLE"/>
    </edge>
    <edge id="234873080" from="440588384" to="1483463571" name="Woodlands Avenue 12" priority="12" type="highway.primary" spreadType="center" shape="420.55,275.91 327.54,178.14 316.62,169.38">
        <lane id="234873080_0" index="0" disallow="tram rail_urban rail rail_electric rail_fast ship" speed="19.44" length="96.65" shape="403.45,255.61 336.69,185.43">
            <param key="origId" value="234873080"/>
        </lane>
        <lane id="234873080_1" index="1" disallow="tram rail_urban rail rail_electric rail_fast ship" speed="19.44" length="96.65" shape="401.13,257.82 334.66,187.95">
            <param key="origId" value="234873080"/>
        </lane>
    </edge>
    <edge id="37584635" from="1110672356" to="440588383" priority="9" type="highway.motorway_link" spreadType="center" shape="0.00,343.61 4.64,344.32 5.98,344.24 7.96,343.84 8.67,343.64 79.51,312.82 156.27,278.89 219.71,255.03 287.91,229.00 307.49,225.40 327.50,226.18 344.42,231.41 363.22,240.52 368.30,244.71 374.20,249.56 406.57,281.12">
        <lane id="37584635_0" index="0" allow="private emergency authority army vip passenger hov taxi bus coach delivery truck trailer motorcycle evehicle custom1 custom2" speed="13.89" length="368.65" shape="29.32,334.66 79.51,312.82 156.27,278.89 219.71,255.03 287.91,229.00 307.49,225.40 327.50,226.18 344.42,231.41 363.22,240.52 368.30,244.71 371.46,247.31">
            <param key="origId" value="37584635"/>
        </lane>
    </edge>
    <edge id="37584636" from="440588384" to="4738276301" name="Woodlands Avenue 12" priority="9" type="highway.motorway_link" spreadType="center" shape="420.55,275.91 397.55,231.50 393.96,216.05 392.80,201.59 394.83,187.14 399.71,171.66 409.74,158.83 421.17,146.17 433.60,135.39 492.07,92.83 542.08,60.37 557.77,49.33">
        <lane id="37584636_0" index="0" allow="private emergency authority army vip passenger hov taxi bus coach delivery truck trailer motorcycle evehicle custom1 custom2" speed="13.89" length="285.63" shape="409.79,251.65 399.06,230.94 395.55,215.80 394.41,201.64 396.40,187.49 401.15,172.42 410.97,159.86 422.29,147.31 434.60,136.64 492.98,94.15 542.98,61.70 558.69,50.64">
            <param key="origId" value="37584636"/>
        </lane>
        <lane id="37584636_1" index="1" allow="private emergency authority army vip passenger hov taxi bus coach delivery truck trailer motorcycle evehicle custom1 custom2" speed="13.89" length="285.63" shape="406.94,253.12 396.04,232.06 392.37,216.30 391.19,201.54 393.26,186.79 398.27,170.90 408.51,157.80 420.05,145.03 432.60,134.14 491.16,91.51 541.18,59.04 556.85,48.02">
            <param key="origId" value="37584636"/>
        </lane>
    </edge>
    <edge id="637675019" from="1483463571" to="6011409288" name="Woodlands Avenue 12" priority="9" type="highway.motorway_link" spreadType="center" shape="316.62,169.38 305.46,164.78 297.69,162.82 279.95,156.96 276.83,156.10 270.97,154.90 265.20,154.28 247.99,156.53 232.63,162.16 220.84,167.23 209.15,174.08 132.07,228.91">
        <lane id="637675019_0" index="0" allow="private emergency authority army vip passenger hov taxi bus coach delivery truck trailer motorcycle evehicle custom1 custom2" speed="13.89" length="199.46" shape="308.89,164.46 305.96,163.26 298.14,161.28 280.41,155.43 277.20,154.54 271.22,153.32 265.18,152.67 247.61,154.97 232.04,160.67 220.12,165.80 208.28,172.74 131.14,227.61">
            <param key="origId" value="637675019 37584634"/>
        </lane>
        <lane id="637675019_1" index="1" allow="private emergency authority army vip passenger hov taxi bus coach delivery truck trailer motorcycle evehicle custom1 custom2" speed="13.89" length="199.46" shape="307.67,167.42 304.96,166.30 297.24,164.36 279.49,158.49 276.46,157.66 270.72,156.48 265.22,155.89 248.37,158.09 233.22,163.65 221.56,168.66 210.02,175.42 133.00,230.21">
            <param key="origId" value="637675019 37584634"/>
        </lane>
    </edge>
    <edge id="637688342" from="1483463571" to="440588383" name="Woodlands Avenue 12" priority="12" type="highway.primary" spreadType="center" shape="316.62,169.38 321.86,180.55 406.57,281.12">
        <lane id="637688342_0" index="0" disallow="tram rail_urban rail rail_electric rail_fast ship" speed="19.44" length="59.76" shape="328.99,191.50 367.76,237.52">
            <param key="origId" value="637688342"/>
        </lane>
        <lane id="637688342_1" index="1" disallow="tram rail_urban rail rail_electric rail_fast ship" speed="19.44" length="59.76" shape="331.98,190.08 370.20,235.46">
            <param key="origId" value="637688342"/>
        </lane>
    </edge>
    <edge id="655493880" from="6141460285" to="440588384" name="Woodlands Avenue 12" priority="12" type="highway.primary" spreadType="center">
        <lane id="655493880_0" index="0" disallow="tram rail_urban rail rail_electric rail_fast ship" speed="19.44" length="39.26" shape="447.41,301.75 421.56,272.20">
            <param key="origId" value="655493880"/>
        </lane>
        <lane id="655493880_1" index="1" disallow="tram rail_urban rail rail_electric rail_fast ship" speed="19.44" length="39.26" shape="445.00,303.86 419.15,274.31">
            <param key="origId" value="655493880"/>
        </lane>
        <lane id="655493880_2" index="2" disallow="tram rail_urban rail rail_electric rail_fast ship" speed="19.44" length="39.26" shape="442.59,305.97 416.74,276.42">
            <param key="origId" value="655493880"/>
        </lane>
    </edge>
    <edge id="698620663" from="6560522963" to="1483463571" name="Seletar Expressway" priority="9" type="highway.motorway_link" spreadType="center" shape="489.22,40.36 464.73,51.10 424.13,68.88 371.21,89.63 363.15,93.34 347.41,100.39 336.30,107.58 324.55,123.15 319.01,134.71 315.73,149.53 316.62,169.38">
        <lane id="698620663_0" index="0" allow="private emergency authority army vip passenger hov taxi bus coach delivery truck trailer motorcycle evehicle custom1 custom2" speed="13.89" length="225.61" shape="488.58,38.89 464.09,49.63 423.52,67.40 370.58,88.16 362.49,91.88 346.64,98.98 335.19,106.39 323.18,122.31 317.49,134.18 314.12,149.39 314.62,160.44">
            <param key="origId" value="698620663 666949453"/>
        </lane>
        <lane id="698620663_1" index="1" allow="private emergency authority army vip passenger hov taxi bus coach delivery truck trailer motorcycle evehicle custom1 custom2" speed="13.89" length="225.61" shape="489.86,41.83 465.37,52.57 424.74,70.36 371.84,91.10 363.81,94.80 348.18,101.80 337.41,108.77 325.92,123.99 320.53,135.24 317.34,149.67 317.81,160.30">
            <param key="origId" value="698620663 666949453"/>
        </lane>
    </edge>
    <edge id="75241834" from="1110672356" to="440588389" name="Seletar Expressway" priority="14" type="highway.motorway" spreadType="center" shape="0.00,343.61 254.58,201.74 374.89,136.61 488.12,76.86 627.85,0.00">
        <lane id="75241834_0" index="0" allow="private emergency authority army vip passenger hov taxi bus coach delivery truck trailer motorcycle evehicle custom1 custom2" speed="25.00" length="684.72" shape="28.66,331.30 256.12,204.54 376.40,139.43 489.64,79.68 629.39,2.80">
            <param key="origId" value="75241834 37584630 37584631"/>
        </lane>
        <lane id="75241834_1" index="1" allow="private emergency authority army vip passenger hov taxi bus coach delivery truck trailer motorcycle evehicle custom1 custom2" speed="25.00" length="684.72" shape="27.11,328.50 254.58,201.74 374.89,136.61 488.12,76.86 627.85,-0.00">
            <param key="origId" value="75241834 37584630 37584631"/>
        </lane>
        <lane id="75241834_2" index="2" allow="private emergency authority army vip passenger hov taxi bus coach delivery truck trailer motorcycle evehicle custom1 custom2" speed="25.00" length="684.72" shape="25.55,325.71 253.04,198.94 373.38,133.79 486.60,74.04 626.31,-2.80">
            <param key="origId" value="75241834 37584630 37584631"/>
        </lane>
        <param key="ref" value="SLE"/>
    </edge>

    <tlLogic id="1483463571" type="actuated" programID="0" offset="0">
        <phase duration="40" state="GGrr" minDur="8" maxDur="50"/>
        <phase duration="5"  state="yyrr"/>
        <phase duration="40" state="rrGG" minDur="5" maxDur="50"/>
        <phase duration="5"  state="rryy"/>
    </tlLogic>

    <junction id="1110672356" type="dead_end" x="0.00" y="343.61" incLanes="" intLanes="" shape="24.77,324.31 29.44,332.70 29.51,332.83 29.13,336.48"/>
    <junction id="1483463571" type="traffic_light" x="316.62" y="169.38" incLanes="234873080_0 234873080_1 698620663_0 698620663_1" intLanes=":1483463571_0_0 :1483463571_0_1 :1483463571_2_0 :1483463571_2_1" shape="337.70,184.17 333.65,189.21 333.47,189.37 327.49,192.21 323.51,186.77 320.94,182.21 318.91,178.32 316.51,174.93 312.86,171.85 307.06,168.90 309.50,162.98 311.53,163.39 312.23,163.13 312.71,162.56 312.97,161.69 313.02,160.51 319.41,160.23 320.28,166.47 322.15,170.70 324.91,173.75 328.49,176.46 332.78,179.65">
        <request index="0" response="1100" foes="1100" cont="0"/>
        <request index="1" response="1100" foes="1100" cont="0"/>
        <request index="2" response="0000" foes="0011" cont="0"/>
        <request index="3" response="0000" foes="0011" cont="0"/>
    </junction>
    <junction id="245573431" type="dead_end" x="558.28" y="14.80" incLanes="" intLanes="" shape="560.78,18.90 555.78,10.70"/>
    <junction id="440588383" type="priority" x="406.57" y="281.12" incLanes="37584635_0 637688342_0 637688342_1" intLanes=":440588383_0_0 :440588383_1_0 :440588383_1_1" shape="381.04,245.27 373.87,251.66 372.66,250.38 372.20,249.96 371.72,249.57 371.13,249.10 370.34,248.46 372.58,246.16 372.42,245.74 371.65,244.73 370.41,243.20 368.70,241.14 366.53,238.55 371.43,234.43">
        <request index="0" response="000" foes="000" cont="0"/>
        <request index="1" response="000" foes="000" cont="0"/>
        <request index="2" response="000" foes="000" cont="0"/>
    </junction>
    <junction id="440588384" type="priority" x="420.55" y="275.91" incLanes="655493880_0 655493880_1 655493880_2" intLanes=":440588384_0_0 :440588384_0_1 :440588384_2_0 :440588384_2_1" shape="422.76,271.15 415.54,277.47 399.97,258.92 404.61,254.51 405.52,253.85 411.21,250.91 413.39,255.39 414.88,258.81 416.12,261.62 417.55,264.30 419.61,267.32">
        <request index="0" response="0000" foes="0000" cont="0"/>
        <request index="1" response="0000" foes="0000" cont="0"/>
        <request index="2" response="0000" foes="0000" cont="0"/>
        <request index="3" response="0000" foes="0000" cont="0"/>
    </junction>
    <junction id="440588389" type="dead_end" x="627.85" y="0.00" incLanes="75241834_0 75241834_1 75241834_2" intLanes="" shape="630.16,4.21 625.54,-4.21"/>
    <junction id="4738276301" type="dead_end" x="557.77" y="49.33" incLanes="37584636_0 37584636_1" intLanes="" shape="559.61,51.95 555.93,46.71"/>
    <junction id="6011409288" type="dead_end" x="132.07" y="228.91" incLanes="637675019_0 637675019_1" intLanes="" shape="130.22,226.30 133.92,231.52"/>
    <junction id="6011409289" type="dead_end" x="30.96" y="304.87" incLanes="234873075_0 234873075_1 234873075_2" intLanes="" shape="28.67,300.65 33.25,309.09"/>
    <junction id="6011516864" type="dead_end" x="657.86" y="569.85" incLanes="22775385_0 22775385_1 22775385_2" intLanes="" shape="654.23,572.99 661.49,566.71"/>
    <junction id="6141460285" type="dead_end" x="445.00" y="303.86" incLanes="" intLanes="" shape="441.39,307.02 448.61,300.70"/>
    <junction id="6560522963" type="dead_end" x="489.22" y="40.36" incLanes="" intLanes="" shape="490.51,43.29 487.93,37.43"/>

    <connection from="234873080" to="637675019" fromLane="0" toLane="0" via=":1483463571_0_0" tl="1483463571" linkIndex="0" dir="s" state="o"/>
    <connection from="234873080" to="637675019" fromLane="1" toLane="1" via=":1483463571_0_1" tl="1483463571" linkIndex="1" dir="s" state="o"/>
    <connection from="37584635" to="22775385" fromLane="0" toLane="0" via=":440588383_0_0" dir="s" state="M"/>
    <connection from="637688342" to="22775385" fromLane="0" toLane="1" via=":440588383_1_0" dir="s" state="M"/>
    <connection from="637688342" to="22775385" fromLane="1" toLane="2" via=":440588383_1_1" dir="s" state="M"/>
    <connection from="655493880" to="37584636" fromLane="0" toLane="0" via=":440588384_0_0" dir="L" state="M"/>
    <connection from="655493880" to="37584636" fromLane="1" toLane="1" via=":440588384_0_1" dir="L" state="M"/>
    <connection from="655493880" to="234873080" fromLane="1" toLane="0" via=":440588384_2_0" dir="s" state="M"/>
    <connection from="655493880" to="234873080" fromLane="2" toLane="1" via=":440588384_2_1" dir="s" state="M"/>
    <connection from="698620663" to="637688342" fromLane="0" toLane="0" via=":1483463571_2_0" tl="1483463571" linkIndex="2" dir="s" state="O"/>
    <connection from="698620663" to="637688342" fromLane="1" toLane="1" via=":1483463571_2_1" tl="1483463571" linkIndex="3" dir="s" state="O"/>

    <connection from=":1483463571_0" to="637675019" fromLane="0" toLane="0" dir="s" state="M"/>
    <connection from=":1483463571_0" to="637675019" fromLane="1" toLane="1" dir="s" state="M"/>
    <connection from=":1483463571_2" to="637688342" fromLane="0" toLane="0" dir="s" state="M"/>
    <connection from=":1483463571_2" to="637688342" fromLane="1" toLane="1" dir="s" state="M"/>
    <connection from=":440588383_0" to="22775385" fromLane="0" toLane="0" dir="s" state="M"/>
    <connection from=":440588383_1" to="22775385" fromLane="0" toLane="1" dir="s" state="M"/>
    <connection from=":440588383_1" to="22775385" fromLane="1" toLane="2" dir="s" state="M"/>
    <connection from=":440588384_0" to="37584636" fromLane="0" toLane="0" dir="L" state="M"/>
    <connection from=":440588384_0" to="37584636" fromLane="1" toLane="1" dir="L" state="M"/>
    <connection from=":440588384_2" to="234873080" fromLane="0" toLane="0" dir="s" state="M"/>
    <connection from=":440588384_2" to="234873080" fromLane="1" toLane="1" dir="s" state="M"/>

</net>
