<?xml version="1.0" encoding="UTF-8"?>

<!-- generated on 2023-07-20 11:06:48 by Eclipse SUMO netconvert Version 1.17.0
<configuration xmlns:xsi="http://www.w3.org/2001/XMLSchema-instance" xsi:noNamespaceSchemaLocation="http://sumo.dlr.de/xsd/netconvertConfiguration.xsd">

    <input>
        <sumo-net-file value="osm.net.xml.gz"/>
    </input>

    <output>
        <output-file value="osm.net.xml"/>
        <output.street-names value="true"/>
    </output>

    <processing>
        <geometry.min-radius.fix.railways value="false"/>
        <geometry.max-grade.fix value="false"/>
        <offset.disable-normalization value="true"/>
        <lefthand value="1"/>
    </processing>

    <junctions>
        <no-turnarounds value="true"/>
        <junctions.corner-detail value="5"/>
        <junctions.limit-turn-speed value="5.50"/>
        <rectangular-lane-cut value="0"/>
    </junctions>

    <pedestrian>
        <walkingareas value="0"/>
    </pedestrian>

</configuration>
-->

<net version="1.16" junctionCornerDetail="5" lefthand="true" limitTurnSpeed="5.50" xmlns:xsi="http://www.w3.org/2001/XMLSchema-instance" xsi:noNamespaceSchemaLocation="http://sumo.dlr.de/xsd/net_file.xsd">

    <location netOffset="-368528.72,-151983.26" convBoundary="0.00,0.00,1461.53,715.12" origBoundary="103.818245,1.374747,103.831380,1.381216" projParameter="+proj=utm +zone=48 +ellps=WGS84 +datum=WGS84 +units=m +no_defs"/>

    <type id="highway.bridleway" priority="1" numLanes="1" speed="2.78" allow="pedestrian" oneway="1" width="2.00"/>
    <type id="highway.bus_guideway" priority="1" numLanes="1" speed="27.78" allow="bus" oneway="1"/>
    <type id="highway.cycleway" priority="1" numLanes="1" speed="5.56" allow="bicycle" oneway="0" width="1.00"/>
    <type id="highway.footway" priority="1" numLanes="1" speed="2.78" allow="pedestrian" oneway="1" width="2.00"/>
    <type id="highway.ford" priority="1" numLanes="1" speed="2.78" allow="army" oneway="0"/>
    <type id="highway.living_street" priority="2" numLanes="1" speed="2.78" disallow="tram rail_urban rail rail_electric rail_fast ship" oneway="0"/>
    <type id="highway.motorway" priority="14" numLanes="2" speed="39.44" allow="private emergency authority army vip passenger hov taxi bus coach delivery truck trailer motorcycle evehicle custom1 custom2" oneway="1"/>
    <type id="highway.motorway_link" priority="9" numLanes="1" speed="22.22" allow="private emergency authority army vip passenger hov taxi bus coach delivery truck trailer motorcycle evehicle custom1 custom2" oneway="1"/>
    <type id="highway.path" priority="1" numLanes="1" speed="5.56" allow="pedestrian bicycle" oneway="0" width="2.00"/>
    <type id="highway.pedestrian" priority="1" numLanes="1" speed="2.78" allow="pedestrian" oneway="1" width="2.00"/>
    <type id="highway.primary" priority="12" numLanes="2" speed="27.78" disallow="tram rail_urban rail rail_electric rail_fast ship" oneway="0"/>
    <type id="highway.primary_link" priority="7" numLanes="1" speed="22.22" disallow="tram rail_urban rail rail_electric rail_fast ship" oneway="0"/>
    <type id="highway.raceway" priority="15" numLanes="2" speed="83.33" allow="vip" oneway="0"/>
    <type id="highway.residential" priority="3" numLanes="1" speed="13.89" disallow="tram rail_urban rail rail_electric rail_fast ship" oneway="0"/>
    <type id="highway.secondary" priority="11" numLanes="1" speed="27.78" disallow="tram rail_urban rail rail_electric rail_fast ship" oneway="0"/>
    <type id="highway.secondary_link" priority="6" numLanes="1" speed="22.22" disallow="tram rail_urban rail rail_electric rail_fast ship" oneway="0"/>
    <type id="highway.service" priority="1" numLanes="1" speed="5.56" allow="pedestrian delivery bicycle" oneway="0"/>
    <type id="highway.stairs" priority="1" numLanes="1" speed="1.39" allow="pedestrian" oneway="1" width="2.00"/>
    <type id="highway.step" priority="1" numLanes="1" speed="1.39" allow="pedestrian" oneway="1" width="2.00"/>
    <type id="highway.steps" priority="1" numLanes="1" speed="1.39" allow="pedestrian" oneway="1" width="2.00"/>
    <type id="highway.tertiary" priority="10" numLanes="1" speed="22.22" disallow="tram rail_urban rail rail_electric rail_fast ship" oneway="0"/>
    <type id="highway.tertiary_link" priority="5" numLanes="1" speed="22.22" disallow="tram rail_urban rail rail_electric rail_fast ship" oneway="0"/>
    <type id="highway.track" priority="1" numLanes="1" speed="5.56" allow="pedestrian motorcycle moped bicycle" oneway="0"/>
    <type id="highway.trunk" priority="13" numLanes="2" speed="27.78" disallow="pedestrian bicycle tram rail_urban rail rail_electric rail_fast ship" oneway="0"/>
    <type id="highway.trunk_link" priority="8" numLanes="1" speed="22.22" disallow="pedestrian bicycle tram rail_urban rail rail_electric rail_fast ship" oneway="0"/>
    <type id="highway.unclassified" priority="4" numLanes="1" speed="13.89" disallow="tram rail_urban rail rail_electric rail_fast ship" oneway="0"/>
    <type id="highway.unsurfaced" priority="1" numLanes="1" speed="8.33" disallow="tram rail_urban rail rail_electric rail_fast ship" oneway="0"/>
    <type id="railway.highspeed" priority="21" numLanes="1" speed="69.44" allow="rail_fast" oneway="1"/>
    <type id="railway.light_rail" priority="19" numLanes="1" speed="27.78" allow="rail_urban" oneway="1"/>
    <type id="railway.preserved" priority="16" numLanes="1" speed="27.78" allow="rail" oneway="1"/>
    <type id="railway.rail" priority="20" numLanes="1" speed="44.44" allow="rail" oneway="1"/>
    <type id="railway.subway" priority="18" numLanes="1" speed="27.78" allow="rail_urban" oneway="1"/>
    <type id="railway.tram" priority="17" numLanes="1" speed="13.89" allow="tram" oneway="1"/>

    <edge id=":1857011383_0" function="internal">
        <lane id=":1857011383_0_0" index="0" disallow="tram rail_urban rail rail_electric rail_fast ship" speed="19.44" length="8.16" shape="1086.94,441.36 1088.20,439.28 1089.38,438.04 1090.54,436.79 1091.75,434.68"/>
        <lane id=":1857011383_0_1" index="1" disallow="tram rail_urban rail rail_electric rail_fast ship" speed="19.44" length="8.16" shape="1084.05,439.99 1085.30,437.93 1086.47,436.71 1087.63,435.48 1088.82,433.39"/>
        <lane id=":1857011383_0_2" index="2" disallow="tram rail_urban rail rail_electric rail_fast ship" speed="19.44" length="8.16" shape="1081.15,438.62 1082.39,436.58 1083.56,435.38 1084.71,434.16 1085.89,432.10"/>
        <lane id=":1857011383_0_3" index="3" disallow="tram rail_urban rail rail_electric rail_fast ship" speed="19.44" length="8.16" shape="1081.15,438.62 1081.93,436.39 1082.10,434.73 1082.24,433.07 1082.96,430.81"/>
    </edge>
    <edge id=":213010103_0" function="internal">
        <lane id=":213010103_0_0" index="0" disallow="tram rail_urban rail rail_electric rail_fast ship" speed="13.45" length="8.92" shape="1160.12,387.07 1162.79,387.19 1164.69,387.20 1166.43,387.62 1168.62,388.95"/>
    </edge>
    <edge id=":213010103_1" function="internal">
        <lane id=":213010103_1_0" index="0" disallow="tram rail_urban rail rail_electric rail_fast ship" speed="19.44" length="8.91" shape="1161.57,383.45 1168.62,388.95"/>
        <lane id=":213010103_1_1" index="1" disallow="tram rail_urban rail rail_electric rail_fast ship" speed="19.44" length="8.91" shape="1163.54,380.92 1170.54,386.38"/>
    </edge>
    <edge id=":215283456_0" function="internal">
        <lane id=":215283456_0_0" index="0" disallow="tram rail_urban rail rail_electric rail_fast ship" speed="16.66" length="12.07" shape="1102.70,409.81 1104.37,406.54 1105.98,404.40 1107.82,402.66 1110.21,400.55"/>
    </edge>
    <edge id=":215283456_1" function="internal">
        <lane id=":215283456_1_0" index="0" disallow="tram rail_urban rail rail_electric rail_fast ship" speed="19.44" length="11.99" shape="1102.70,409.81 1103.99,406.36 1104.52,403.88 1104.94,401.36 1105.89,397.78"/>
        <lane id=":215283456_1_1" index="1" disallow="tram rail_urban rail rail_electric rail_fast ship" speed="19.44" length="11.99" shape="1099.77,408.52 1101.02,405.16 1101.53,402.74 1101.92,400.28 1102.84,396.80"/>
        <lane id=":215283456_1_2" index="2" disallow="tram rail_urban rail rail_electric rail_fast ship" speed="19.44" length="11.99" shape="1096.84,407.23 1098.05,403.96 1098.53,401.61 1098.90,399.21 1099.79,395.82"/>
        <lane id=":215283456_1_3" index="3" disallow="tram rail_urban rail rail_electric rail_fast ship" speed="19.44" length="11.99" shape="1093.92,405.94 1095.09,402.76 1095.54,400.47 1095.89,398.14 1096.75,394.84"/>
    </edge>
    <edge id=":229182601_0" function="internal">
        <lane id=":229182601_0_0" index="0" disallow="tram rail_urban rail rail_electric rail_fast ship" speed="16.66" length="11.96" shape="1169.32,359.62 1166.51,357.34 1164.84,355.32 1163.62,353.11 1162.19,350.26"/>
    </edge>
    <edge id=":229182601_1" function="internal">
        <lane id=":229182601_1_0" index="0" disallow="tram rail_urban rail rail_electric rail_fast ship" speed="19.44" length="11.90" shape="1169.32,359.62 1166.26,357.66 1163.99,356.59 1161.65,355.66 1158.34,354.09"/>
        <lane id=":229182601_1_1" index="1" disallow="tram rail_urban rail rail_electric rail_fast ship" speed="19.44" length="11.90" shape="1167.47,362.23 1164.51,360.34 1162.32,359.33 1160.05,358.43 1156.86,356.92"/>
        <lane id=":229182601_1_2" index="2" disallow="tram rail_urban rail rail_electric rail_fast ship" speed="19.44" length="11.90" shape="1165.63,364.84 1162.77,363.03 1160.65,362.06 1158.45,361.21 1155.37,359.76"/>
    </edge>
    <edge id=":229185211_0" function="internal">
        <lane id=":229185211_0_0" index="0" disallow="tram rail_urban rail rail_electric rail_fast ship" speed="15.28" length="16.09" shape="1137.32,289.57 1136.23,286.20 1135.21,282.88 1134.60,278.98 1134.72,273.85"/>
    </edge>
    <edge id=":229185211_1" function="internal">
        <lane id=":229185211_1_0" index="0" disallow="tram rail_urban rail rail_electric rail_fast ship" speed="16.67" length="16.06" shape="1132.58,289.85 1134.72,273.85"/>
        <lane id=":229185211_1_1" index="1" disallow="tram rail_urban rail rail_electric rail_fast ship" speed="16.67" length="16.06" shape="1129.40,289.45 1131.54,273.54"/>
        <lane id=":229185211_1_2" index="2" disallow="tram rail_urban rail rail_electric rail_fast ship" speed="16.67" length="16.06" shape="1126.23,289.06 1128.35,273.22"/>
    </edge>
    <edge id=":244505571_0" function="internal">
        <lane id=":244505571_0_0" index="0" disallow="tram rail_urban rail rail_electric rail_fast ship" speed="10.75" length="3.69" shape="1092.47,333.29 1091.40,333.50 1090.65,333.57 1089.90,333.48 1088.83,333.24"/>
    </edge>
    <edge id=":244505571_1" function="internal">
        <lane id=":244505571_1_0" index="0" disallow="tram rail_urban rail rail_electric rail_fast ship" speed="13.89" length="9.98" shape="1087.33,339.46 1090.22,340.11 1092.21,340.51 1094.17,341.02 1096.97,341.97"/>
    </edge>
    <edge id=":244505578_0" function="internal">
        <lane id=":244505578_0_0" index="0" disallow="tram rail_urban rail rail_electric rail_fast ship" speed="6.82" length="6.12" shape="1081.23,331.40 1079.63,330.83 1078.36,330.01 1077.44,328.91 1076.85,327.55"/>
    </edge>
    <edge id=":244505578_1" function="internal">
        <lane id=":244505578_1_0" index="0" disallow="tram rail_urban rail rail_electric rail_fast ship" speed="9.23" length="1.83" shape="1081.23,331.40 1079.41,331.58"/>
    </edge>
    <edge id=":244505578_5" function="internal">
        <lane id=":244505578_5_0" index="0" disallow="tram rail_urban rail rail_electric rail_fast ship" speed="9.23" length="10.98" shape="1079.41,331.58 1077.16,332.89 1074.48,335.34 1071.37,338.92"/>
    </edge>
    <edge id=":244505578_2" function="internal">
        <lane id=":244505578_2_0" index="0" disallow="tram rail_urban rail rail_electric rail_fast ship" speed="9.48" length="10.65" shape="1073.93,328.99 1074.29,331.48 1073.98,333.97 1073.01,336.45 1071.37,338.92"/>
    </edge>
    <edge id=":244505578_3" function="internal">
        <lane id=":244505578_3_0" index="0" disallow="tram rail_urban rail rail_electric rail_fast ship" speed="8.87" length="10.81" shape="1073.93,328.99 1075.10,332.43 1076.46,335.02 1078.00,336.75 1079.72,337.62"/>
        <lane id=":244505578_3_1" index="1" disallow="tram rail_urban rail rail_electric rail_fast ship" speed="8.14" length="8.99" shape="1073.93,328.99 1074.78,330.92 1076.15,332.48 1078.05,333.67 1080.48,334.51"/>
    </edge>
    <edge id=":3884230363_0" function="internal">
        <lane id=":3884230363_0_0" index="0" disallow="tram rail_urban rail rail_electric rail_fast ship" speed="19.44" length="8.09" shape="1193.01,378.57 1191.26,376.89 1190.31,375.48 1189.34,374.10 1187.54,372.51"/>
        <lane id=":3884230363_0_1" index="1" disallow="tram rail_urban rail rail_electric rail_fast ship" speed="19.44" length="8.09" shape="1191.04,381.09 1189.33,379.44 1188.40,378.05 1187.46,376.68 1185.69,375.12"/>
        <lane id=":3884230363_0_2" index="2" disallow="tram rail_urban rail rail_electric rail_fast ship" speed="19.44" length="8.09" shape="1191.04,381.09 1189.05,379.86 1187.48,379.35 1185.89,378.88 1183.84,377.73"/>
    </edge>
    <edge id=":4732572281_0" function="internal">
        <lane id=":4732572281_0_0" index="0" disallow="tram rail_urban rail rail_electric rail_fast ship" speed="16.67" length="8.20" shape="1144.19,154.83 1144.57,152.44 1145.20,150.86 1145.83,149.28 1146.19,146.89"/>
        <lane id=":4732572281_0_1" index="1" disallow="tram rail_urban rail rail_electric rail_fast ship" speed="16.67" length="8.20" shape="1140.99,154.65 1141.37,152.27 1142.01,150.70 1142.63,149.12 1143.00,146.74"/>
        <lane id=":4732572281_0_2" index="2" disallow="tram rail_urban rail rail_electric rail_fast ship" speed="16.67" length="8.20" shape="1137.80,154.48 1138.18,152.10 1138.81,150.53 1139.44,148.97 1139.80,146.59"/>
        <lane id=":4732572281_0_3" index="3" disallow="tram rail_urban rail rail_electric rail_fast ship" speed="16.67" length="8.20" shape="1137.80,154.48 1137.68,152.08 1137.21,150.46 1136.74,148.84 1136.61,146.44"/>
    </edge>
    <edge id=":4732575308_0" function="internal">
        <lane id=":4732575308_0_0" index="0" disallow="tram rail_urban rail rail_electric rail_fast ship" speed="16.67" length="8.10" shape="1118.41,268.39 1118.01,270.66 1117.33,272.14 1116.63,273.61 1116.11,275.87"/>
        <lane id=":4732575308_0_1" index="1" disallow="tram rail_urban rail rail_electric rail_fast ship" speed="16.67" length="8.10" shape="1121.60,268.61 1121.20,270.92 1120.52,272.43 1119.81,273.94 1119.29,276.25"/>
        <lane id=":4732575308_0_2" index="2" disallow="tram rail_urban rail rail_electric rail_fast ship" speed="16.67" length="8.10" shape="1124.80,268.82 1124.38,271.19 1123.71,272.73 1122.99,274.27 1122.46,276.63"/>
        <lane id=":4732575308_0_3" index="3" disallow="tram rail_urban rail rail_electric rail_fast ship" speed="16.67" length="8.10" shape="1124.80,268.82 1124.88,271.26 1125.30,272.92 1125.68,274.58 1125.64,277.01"/>
    </edge>
    <edge id=":5936047303_0" function="internal">
        <lane id=":5936047303_0_0" index="0" disallow="tram rail_urban rail rail_electric rail_fast ship" speed="19.44" length="15.73" shape="1230.72,436.20 1243.49,445.47"/>
        <lane id=":5936047303_0_1" index="1" disallow="tram rail_urban rail rail_electric rail_fast ship" speed="19.44" length="15.73" shape="1232.73,433.70 1245.42,442.92"/>
    </edge>
    <edge id=":5936047303_2" function="internal">
        <lane id=":5936047303_2_0" index="0" disallow="tram rail_urban rail rail_electric rail_fast ship" speed="11.50" length="15.80" shape="1232.73,433.70 1236.28,436.03 1239.93,437.39 1243.68,437.78 1247.52,437.21"/>
    </edge>
    <edge id=":5936047306_0" function="internal">
        <lane id=":5936047306_0_0" index="0" disallow="tram rail_urban rail rail_electric rail_fast ship" speed="19.44" length="11.19" shape="1264.34,432.68 1255.36,426.14"/>
        <lane id=":5936047306_0_1" index="1" disallow="tram rail_urban rail rail_electric rail_fast ship" speed="19.44" length="11.19" shape="1262.54,435.32 1253.42,428.69"/>
    </edge>
    <edge id=":5936047306_2" function="internal">
        <lane id=":5936047306_2_0" index="0" disallow="tram rail_urban rail rail_electric rail_fast ship" speed="5.74" length="10.20" shape="1253.15,435.68 1255.78,434.53 1256.70,432.98 1255.92,431.03 1253.42,428.69"/>
    </edge>
    <edge id=":6026715882_0" function="internal">
        <lane id=":6026715882_0_0" index="0" disallow="tram rail_urban rail rail_electric rail_fast ship" speed="3.65" length="4.67" shape="930.67,0.25 930.07,-1.06 929.34,-1.58 928.48,-1.31 927.51,-0.25"/>
    </edge>
    <edge id=":cluster_1600931376_213012250_215283486_229184146_0" function="internal">
        <lane id=":cluster_1600931376_213012250_215283486_229184146_0_0" index="0" disallow="tram rail_urban rail rail_electric rail_fast ship" speed="8.77" length="13.72" shape="1106.63,325.74 1105.07,329.05 1102.83,331.36 1099.90,332.68 1096.29,333.02"/>
    </edge>
    <edge id=":cluster_1600931376_213012250_215283486_229184146_1" function="internal">
        <lane id=":cluster_1600931376_213012250_215283486_229184146_1_0" index="0" disallow="tram rail_urban rail rail_electric rail_fast ship" speed="18.05" length="28.17" shape="1106.63,325.74 1099.39,352.77"/>
        <lane id=":cluster_1600931376_213012250_215283486_229184146_1_1" index="1" disallow="tram rail_urban rail rail_electric rail_fast ship" speed="18.05" length="28.17" shape="1109.75,326.49 1102.45,353.70"/>
        <lane id=":cluster_1600931376_213012250_215283486_229184146_1_2" index="2" disallow="tram rail_urban rail rail_electric rail_fast ship" speed="18.05" length="28.17" shape="1112.87,327.25 1105.51,354.64"/>
    </edge>
    <edge id=":cluster_1600931376_213012250_215283486_229184146_4" function="internal">
        <lane id=":cluster_1600931376_213012250_215283486_229184146_4_0" index="0" disallow="tram rail_urban rail rail_electric rail_fast ship" speed="12.27" length="7.75" shape="1115.99,328.00 1114.73,335.65"/>
    </edge>
    <edge id=":cluster_1600931376_213012250_215283486_229184146_5" function="internal">
        <lane id=":cluster_1600931376_213012250_215283486_229184146_5_0" index="0" disallow="tram rail_urban rail rail_electric rail_fast ship" speed="3.65" length="1.30" shape="1115.99,328.00 1116.44,329.22"/>
    </edge>
    <edge id=":cluster_1600931376_213012250_215283486_229184146_20" function="internal">
        <lane id=":cluster_1600931376_213012250_215283486_229184146_20_0" index="0" disallow="tram rail_urban rail rail_electric rail_fast ship" speed="12.27" length="22.25" shape="1114.73,335.65 1116.15,342.35 1120.25,348.11 1127.04,352.93"/>
    </edge>
    <edge id=":cluster_1600931376_213012250_215283486_229184146_21" function="internal">
        <lane id=":cluster_1600931376_213012250_215283486_229184146_21_0" index="0" disallow="tram rail_urban rail rail_electric rail_fast ship" speed="3.65" length="3.25" shape="1116.44,329.22 1116.47,329.32 1117.14,329.88 1117.99,329.69 1119.02,328.73"/>
    </edge>
    <edge id=":cluster_1600931376_213012250_215283486_229184146_6" function="internal">
        <lane id=":cluster_1600931376_213012250_215283486_229184146_6_0" index="0" disallow="tram rail_urban rail rail_electric rail_fast ship" speed="16.66" length="38.25" shape="1133.48,340.88 1122.72,336.84 1111.73,334.50 1102.32,333.39 1096.29,333.02"/>
    </edge>
    <edge id=":cluster_1600931376_213012250_215283486_229184146_7" function="internal">
        <lane id=":cluster_1600931376_213012250_215283486_229184146_7_0" index="0" disallow="tram rail_urban rail rail_electric rail_fast ship" speed="10.95" length="31.03" shape="1131.97,343.70 1124.85,342.53 1116.74,344.49 1109.63,348.78 1105.51,354.64"/>
    </edge>
    <edge id=":cluster_1600931376_213012250_215283486_229184146_8" function="internal">
        <lane id=":cluster_1600931376_213012250_215283486_229184146_8_0" index="0" disallow="tram rail_urban rail rail_electric rail_fast ship" speed="4.98" length="10.60" shape="1130.46,346.53 1127.21,346.84 1125.55,348.02 1125.50,350.04 1127.04,352.93"/>
    </edge>
    <edge id=":cluster_1600931376_213012250_215283486_229184146_9" function="internal">
        <lane id=":cluster_1600931376_213012250_215283486_229184146_9_0" index="0" disallow="tram rail_urban rail rail_electric rail_fast ship" speed="18.05" length="28.98" shape="1118.50,358.62 1125.24,330.24"/>
        <lane id=":cluster_1600931376_213012250_215283486_229184146_9_1" index="1" disallow="tram rail_urban rail rail_electric rail_fast ship" speed="18.05" length="28.98" shape="1115.44,357.68 1122.13,329.49"/>
        <lane id=":cluster_1600931376_213012250_215283486_229184146_9_2" index="2" disallow="tram rail_urban rail rail_electric rail_fast ship" speed="18.05" length="28.98" shape="1112.38,356.74 1119.02,328.73"/>
    </edge>
    <edge id=":cluster_1600931376_213012250_215283486_229184146_12" function="internal">
        <lane id=":cluster_1600931376_213012250_215283486_229184146_12_0" index="0" disallow="tram rail_urban rail rail_electric rail_fast ship" speed="10.82" length="32.33" shape="1109.32,355.81 1111.21,346.47 1109.94,339.43 1105.10,334.88 1096.29,333.02"/>
    </edge>
    <edge id=":cluster_1600931376_213012250_215283486_229184146_13" function="internal">
        <lane id=":cluster_1600931376_213012250_215283486_229184146_13_0" index="0" disallow="tram rail_urban rail rail_electric rail_fast ship" speed="3.94" length="5.81" shape="1109.32,355.81 1108.80,354.09 1108.00,353.32 1106.90,353.50 1105.51,354.64"/>
    </edge>
    <edge id=":cluster_1600931376_213012250_215283486_229184146_14" function="internal">
        <lane id=":cluster_1600931376_213012250_215283486_229184146_14_0" index="0" disallow="tram rail_urban rail rail_electric rail_fast ship" speed="7.58" length="12.11" shape="1097.16,342.04 1099.16,343.39 1100.20,345.63 1100.28,348.76 1099.39,352.77"/>
    </edge>
    <edge id=":cluster_1600931376_213012250_215283486_229184146_15" function="internal">
        <lane id=":cluster_1600931376_213012250_215283486_229184146_15_0" index="0" disallow="tram rail_urban rail rail_electric rail_fast ship" speed="16.66" length="31.68" shape="1097.16,342.04 1102.34,344.25 1109.80,347.77 1118.04,351.86 1125.53,355.75"/>
        <lane id=":cluster_1600931376_213012250_215283486_229184146_15_1" index="1" disallow="tram rail_urban rail rail_electric rail_fast ship" speed="16.66" length="31.68" shape="1097.16,342.04 1102.57,343.81 1110.56,346.36 1119.31,349.48 1127.04,352.93"/>
    </edge>
    <edge id=":cluster_1600931376_213012250_215283486_229184146_17" function="internal">
        <lane id=":cluster_1600931376_213012250_215283486_229184146_17_0" index="0" disallow="tram rail_urban rail rail_electric rail_fast ship" speed="11.02" length="20.49" shape="1097.16,342.04 1104.29,342.58 1111.99,340.15 1116.28,337.11"/>
        <lane id=":cluster_1600931376_213012250_215283486_229184146_17_1" index="1" disallow="tram rail_urban rail rail_electric rail_fast ship" speed="10.60" length="20.50" shape="1097.16,342.04 1103.67,342.37 1110.34,339.60 1115.41,335.13"/>
    </edge>
    <edge id=":cluster_1600931376_213012250_215283486_229184146_19" function="internal">
        <lane id=":cluster_1600931376_213012250_215283486_229184146_19_0" index="0" disallow="tram rail_urban rail rail_electric rail_fast ship" speed="5.72" length="9.51" shape="1097.16,342.04 1100.33,339.46 1101.24,337.09 1099.89,334.95 1099.58,334.78"/>
    </edge>
    <edge id=":cluster_1600931376_213012250_215283486_229184146_22" function="internal">
        <lane id=":cluster_1600931376_213012250_215283486_229184146_22_0" index="0" disallow="tram rail_urban rail rail_electric rail_fast ship" speed="11.02" length="9.77" shape="1116.28,337.11 1118.52,335.52 1122.13,329.49"/>
    </edge>
    <edge id=":cluster_1600931376_213012250_215283486_229184146_23" function="internal">
        <lane id=":cluster_1600931376_213012250_215283486_229184146_23_0" index="0" disallow="tram rail_urban rail rail_electric rail_fast ship" speed="10.60" length="7.38" shape="1115.41,335.13 1115.88,334.72 1119.02,328.73"/>
    </edge>
    <edge id=":cluster_1600931376_213012250_215283486_229184146_24" function="internal">
        <lane id=":cluster_1600931376_213012250_215283486_229184146_24_0" index="0" disallow="tram rail_urban rail rail_electric rail_fast ship" speed="5.72" length="3.73" shape="1099.58,334.78 1096.29,333.02"/>
    </edge>

    <edge id="-464221280" from="244505578" to="244505571" name="Old Upper Thomson Road" priority="4" type="highway.unclassified">
        <lane id="-464221280_0" index="0" disallow="tram rail_urban rail rail_electric rail_fast ship" speed="13.89" length="7.82" shape="1079.72,337.62 1087.33,339.46">
            <param key="origId" value="464221280"/>
        </lane>
        <lane id="-464221280_1" index="1" disallow="tram rail_urban rail rail_electric rail_fast ship" speed="13.89" length="7.82" shape="1080.48,334.51 1088.08,336.35">
            <param key="origId" value="464221280"/>
        </lane>
    </edge>
    <edge id="-630078189" from="244505578" to="6026715882" name="Old Upper Thomson Road" priority="4" type="highway.unclassified" shape="1076.92,332.00 1075.79,329.71 1072.87,319.23 1068.99,303.66 1066.72,296.90 1065.01,294.48 1060.65,288.29 1051.70,280.33 1039.67,273.39 1024.91,268.10 1011.93,263.74 998.94,259.20 973.39,247.97 956.62,237.11 948.39,231.77 945.65,229.61 930.83,217.98 910.01,189.43 902.86,172.25 901.71,153.37 903.31,133.71 920.08,57.75 929.09,0.00">
        <lane id="-630078189_0" index="0" disallow="tram rail_urban rail rail_electric rail_fast ship" speed="13.89" length="419.96" shape="1076.85,327.55 1074.42,318.82 1070.53,303.21 1068.16,296.17 1066.32,293.56 1061.85,287.22 1052.64,279.03 1040.35,271.93 1025.43,266.59 1012.45,262.23 999.53,257.71 974.15,246.56 957.49,235.77 949.32,230.47 946.64,228.35 931.99,216.86 911.41,188.64 904.44,171.88 903.31,153.39 904.90,133.95 921.65,58.05 930.67,0.25">
            <param key="origId" value="630078189 641085403 629434648 641085402 629418820 629428541 629418817 629418819"/>
        </lane>
    </edge>
    <edge id="175840066" from="229185211" to="4732572281" name="Upper Thomson Road" priority="12" type="highway.primary" spreadType="center" shape="1132.05,268.38 1134.71,241.64 1135.58,228.94 1138.63,192.87 1139.20,187.21 1139.62,179.62 1141.21,150.66">
        <lane id="175840066_0" index="0" disallow="tram rail_urban rail rail_electric rail_fast ship" speed="16.67" length="119.28" shape="1134.72,273.85 1137.90,241.91 1138.77,229.18 1141.82,193.15 1142.39,187.46 1142.82,179.80 1144.19,154.83">
            <param key="origId" value="175840066 480255892 480255893"/>
        </lane>
        <lane id="175840066_1" index="1" disallow="tram rail_urban rail rail_electric rail_fast ship" speed="16.67" length="119.28" shape="1131.54,273.54 1134.71,241.64 1135.58,228.94 1138.63,192.87 1139.20,187.21 1139.62,179.62 1140.99,154.65">
            <param key="origId" value="175840066 480255892 480255893"/>
        </lane>
        <lane id="175840066_2" index="2" disallow="tram rail_urban rail rail_electric rail_fast ship" speed="16.67" length="119.28" shape="1128.35,273.22 1131.52,241.37 1132.39,228.70 1135.44,192.59 1136.01,186.96 1136.42,179.44 1137.80,154.48">
            <param key="origId" value="175840066 480255892 480255893"/>
        </lane>
    </edge>
    <edge id="175840068#0" from="cluster_1600931376_213012250_215283486_229184146" to="6771682683" name="Upper Thomson Road" priority="12" type="highway.primary" spreadType="center" shape="1105.13,344.96 1101.48,356.88 1095.28,377.25 1084.69,405.11 1076.85,420.97 1052.44,468.82 1037.39,499.64 1013.10,547.94 991.55,589.56 962.15,643.99 924.94,715.12">
        <lane id="175840068#0_0" index="0" disallow="tram rail_urban rail rail_electric rail_fast ship" speed="19.44" length="403.20" shape="1099.39,352.77 1098.42,355.95 1092.25,376.21 1081.75,403.83 1073.99,419.53 1049.58,467.39 1034.52,498.22 1010.25,546.49 988.72,588.06 959.32,642.49 922.10,713.64">
            <param key="origId" value="175840068"/>
        </lane>
        <lane id="175840068#0_1" index="1" disallow="tram rail_urban rail rail_electric rail_fast ship" speed="19.44" length="403.20" shape="1102.45,353.70 1101.48,356.88 1095.28,377.25 1084.69,405.11 1076.85,420.97 1052.44,468.82 1037.39,499.64 1013.10,547.94 991.55,589.56 962.15,643.99 924.94,715.12">
            <param key="origId" value="175840068"/>
        </lane>
        <lane id="175840068#0_2" index="2" disallow="tram rail_urban rail rail_electric rail_fast ship" speed="19.44" length="403.20" shape="1105.51,354.64 1104.54,357.81 1098.31,378.29 1087.63,406.39 1079.71,422.41 1055.30,470.25 1040.26,501.06 1015.95,549.39 994.38,591.06 964.98,645.49 927.78,716.60">
            <param key="origId" value="175840068"/>
        </lane>
        <param key="origFrom" value="213012250"/>
    </edge>
    <edge id="175840085#0" from="229182601" to="cluster_1600931376_213012250_215283486_229184146" name="Yio Chu Kang Road" priority="12" type="highway.primary" spreadType="center" shape="1168.90,363.24 1150.14,353.40 1140.41,347.94 1131.49,343.46 1124.78,339.45 1120.35,336.81">
        <lane id="175840085#0_0" index="0" disallow="tram rail_urban rail rail_electric rail_fast ship" speed="19.44" length="28.18" shape="1158.34,354.09 1151.67,350.59 1141.91,345.11 1133.48,340.88">
            <param key="origId" value="175840085"/>
        </lane>