<?xml version="1.0" encoding="UTF-8"?>

<!-- generated on 2023-07-17 16:28:54 by Eclipse SUMO netconvert Version 1.17.0
<configuration xmlns:xsi="http://www.w3.org/2001/XMLSchema-instance" xsi:noNamespaceSchemaLocation="http://sumo.dlr.de/xsd/netconvertConfiguration.xsd">

    <input>
        <sumo-net-file value="osm.net.xml.gz"/>
    </input>

    <output>
        <output-file value="osm.net.xml"/>
        <output.street-names value="true"/>
    </output>

    <processing>
        <geometry.min-radius.fix.railways value="false"/>
        <geometry.max-grade.fix value="false"/>
        <offset.disable-normalization value="true"/>
        <lefthand value="1"/>
    </processing>

    <junctions>
        <no-turnarounds value="true"/>
        <junctions.corner-detail value="5"/>
        <junctions.limit-turn-speed value="5.50"/>
        <rectangular-lane-cut value="0"/>
    </junctions>

    <pedestrian>
        <walkingareas value="0"/>
    </pedestrian>

</configuration>
-->

<net version="1.16" junctionCornerDetail="5" lefthand="true" limitTurnSpeed="5.50" xmlns:xsi="http://www.w3.org/2001/XMLSchema-instance" xsi:noNamespaceSchemaLocation="http://sumo.dlr.de/xsd/net_file.xsd">

    <location netOffset="-371044.10,-142372.77" convBoundary="0.00,0.00,486.57,1521.30" origBoundary="103.840895,1.287826,103.845267,1.301585" projParameter="+proj=utm +zone=48 +ellps=WGS84 +datum=WGS84 +units=m +no_defs"/>

    <type id="highway.bridleway" priority="1" numLanes="1" speed="2.78" allow="pedestrian" oneway="1" width="2.00"/>
    <type id="highway.bus_guideway" priority="1" numLanes="1" speed="27.78" allow="bus" oneway="1"/>
    <type id="highway.cycleway" priority="1" numLanes="1" speed="5.56" allow="bicycle" oneway="0" width="1.00"/>
    <type id="highway.footway" priority="1" numLanes="1" speed="2.78" allow="pedestrian" oneway="1" width="2.00"/>
    <type id="highway.ford" priority="1" numLanes="1" speed="2.78" allow="army" oneway="0"/>
    <type id="highway.living_street" priority="2" numLanes="1" speed="2.78" disallow="tram rail_urban rail rail_electric rail_fast ship" oneway="0"/>
    <type id="highway.motorway" priority="14" numLanes="2" speed="39.44" allow="private emergency authority army vip passenger hov taxi bus coach delivery truck trailer motorcycle evehicle custom1 custom2" oneway="1"/>
    <type id="highway.motorway_link" priority="9" numLanes="1" speed="22.22" allow="private emergency authority army vip passenger hov taxi bus coach delivery truck trailer motorcycle evehicle custom1 custom2" oneway="1"/>
    <type id="highway.path" priority="1" numLanes="1" speed="5.56" allow="pedestrian bicycle" oneway="0" width="2.00"/>
    <type id="highway.pedestrian" priority="1" numLanes="1" speed="2.78" allow="pedestrian" oneway="1" width="2.00"/>
    <type id="highway.primary" priority="12" numLanes="2" speed="27.78" disallow="tram rail_urban rail rail_electric rail_fast ship" oneway="0"/>
    <type id="highway.primary_link" priority="7" numLanes="1" speed="22.22" disallow="tram rail_urban rail rail_electric rail_fast ship" oneway="0"/>
    <type id="highway.raceway" priority="15" numLanes="2" speed="83.33" allow="vip" oneway="0"/>
    <type id="highway.residential" priority="3" numLanes="1" speed="13.89" disallow="tram rail_urban rail rail_electric rail_fast ship" oneway="0"/>
    <type id="highway.secondary" priority="11" numLanes="1" speed="27.78" disallow="tram rail_urban rail rail_electric rail_fast ship" oneway="0"/>
    <type id="highway.secondary_link" priority="6" numLanes="1" speed="22.22" disallow="tram rail_urban rail rail_electric rail_fast ship" oneway="0"/>
    <type id="highway.service" priority="1" numLanes="1" speed="5.56" allow="pedestrian delivery bicycle" oneway="0"/>
    <type id="highway.stairs" priority="1" numLanes="1" speed="1.39" allow="pedestrian" oneway="1" width="2.00"/>
    <type id="highway.step" priority="1" numLanes="1" speed="1.39" allow="pedestrian" oneway="1" width="2.00"/>
    <type id="highway.steps" priority="1" numLanes="1" speed="1.39" allow="pedestrian" oneway="1" width="2.00"/>
    <type id="highway.tertiary" priority="10" numLanes="1" speed="22.22" disallow="tram rail_urban rail rail_electric rail_fast ship" oneway="0"/>
    <type id="highway.tertiary_link" priority="5" numLanes="1" speed="22.22" disallow="tram rail_urban rail rail_electric rail_fast ship" oneway="0"/>
    <type id="highway.track" priority="1" numLanes="1" speed="5.56" allow="pedestrian motorcycle moped bicycle" oneway="0"/>
    <type id="highway.trunk" priority="13" numLanes="2" speed="27.78" disallow="pedestrian bicycle tram rail_urban rail rail_electric rail_fast ship" oneway="0"/>
    <type id="highway.trunk_link" priority="8" numLanes="1" speed="22.22" disallow="pedestrian bicycle tram rail_urban rail rail_electric rail_fast ship" oneway="0"/>
    <type id="highway.unclassified" priority="4" numLanes="1" speed="13.89" disallow="tram rail_urban rail rail_electric rail_fast ship" oneway="0"/>
    <type id="highway.unsurfaced" priority="1" numLanes="1" speed="8.33" disallow="tram rail_urban rail rail_electric rail_fast ship" oneway="0"/>
    <type id="railway.highspeed" priority="21" numLanes="1" speed="69.44" allow="rail_fast" oneway="1"/>
    <type id="railway.light_rail" priority="19" numLanes="1" speed="27.78" allow="rail_urban" oneway="1"/>
    <type id="railway.preserved" priority="16" numLanes="1" speed="27.78" allow="rail" oneway="1"/>
    <type id="railway.rail" priority="20" numLanes="1" speed="44.44" allow="rail" oneway="1"/>
    <type id="railway.subway" priority="18" numLanes="1" speed="27.78" allow="rail_urban" oneway="1"/>
    <type id="railway.tram" priority="17" numLanes="1" speed="13.89" allow="tram" oneway="1"/>

    <edge id=":1275667578_0" function="internal">
        <lane id=":1275667578_0_0" index="0" disallow="pedestrian tram rail_urban rail rail_electric rail_fast ship" speed="16.67" length="3.53" shape="157.22,276.30 158.97,279.40"/>
        <lane id=":1275667578_0_1" index="1" disallow="pedestrian tram rail_urban rail rail_electric rail_fast ship" speed="16.67" length="3.53" shape="154.43,277.87 156.15,280.92"/>
    </edge>
    <edge id=":158094620_0" function="internal">
        <lane id=":158094620_0_0" index="0" allow="private emergency authority army vip passenger hov taxi bus coach delivery truck trailer motorcycle evehicle custom1 custom2" speed="16.66" length="3.09" shape="133.16,186.73 134.91,189.27"/>
    </edge>
    <edge id=":158094620_1" function="internal">
        <lane id=":158094620_1_0" index="0" allow="private emergency authority army vip passenger hov taxi bus coach delivery truck trailer motorcycle evehicle custom1 custom2" speed="22.22" length="2.84" shape="136.06,185.10 137.59,187.53"/>
        <lane id=":158094620_1_1" index="1" allow="private emergency authority army vip passenger hov taxi bus coach delivery truck trailer motorcycle evehicle custom1 custom2" speed="22.22" length="2.84" shape="138.79,183.42 140.28,185.79"/>
    </edge>
    <edge id=":158094638_0" function="internal">
        <lane id=":158094638_0_0" index="0" allow="private emergency authority army vip passenger hov taxi bus coach delivery truck trailer motorcycle evehicle custom1 custom2" speed="22.22" length="8.18" shape="188.10,283.80 188.99,286.05 189.26,287.73 189.54,289.41 190.48,291.63"/>
        <lane id=":158094638_0_1" index="1" allow="private emergency authority army vip passenger hov taxi bus coach delivery truck trailer motorcycle evehicle custom1 custom2" speed="22.22" length="8.18" shape="190.94,282.33 191.82,284.56 192.08,286.23 192.35,287.89 193.28,290.09"/>
        <lane id=":158094638_0_2" index="2" allow="private emergency authority army vip passenger hov taxi bus coach delivery truck trailer motorcycle evehicle custom1 custom2" speed="22.22" length="8.18" shape="190.94,282.33 192.26,284.31 193.48,285.45 194.72,286.59 196.08,288.55"/>
    </edge>
    <edge id=":174552486-AddedOnRampNode_0" function="internal">
        <lane id=":174552486-AddedOnRampNode_0_0" index="0" allow="private emergency authority army vip passenger hov taxi bus coach delivery truck trailer motorcycle evehicle custom1 custom2" speed="22.22" length="8.00" shape="181.49,271.07 185.18,278.17"/>
        <lane id=":174552486-AddedOnRampNode_0_1" index="1" allow="private emergency authority army vip passenger hov taxi bus coach delivery truck trailer motorcycle evehicle custom1 custom2" speed="22.22" length="8.00" shape="184.33,269.59 188.01,276.69"/>
    </edge>
    <edge id=":1790124129_0" function="internal">
        <lane id=":1790124129_0_0" index="0" disallow="tram rail_urban rail rail_electric rail_fast ship" speed="11.87" length="19.77" shape="159.51,259.93 160.56,255.05 162.63,250.93 165.73,247.59 169.86,245.01"/>
        <lane id=":1790124129_0_1" index="1" disallow="tram rail_urban rail rail_electric rail_fast ship" speed="12.34" length="19.77" shape="156.53,257.64 157.68,252.78 160.06,248.57 163.66,245.01 168.49,242.11"/>
    </edge>
    <edge id=":1790124129_2" function="internal">
        <lane id=":1790124129_2_0" index="0" disallow="tram rail_urban rail rail_electric rail_fast ship" speed="16.67" length="19.27" shape="153.07,254.29 169.86,245.01"/>
        <lane id=":1790124129_2_1" index="1" disallow="tram rail_urban rail rail_electric rail_fast ship" speed="16.67" length="19.27" shape="151.54,251.47 168.49,242.11"/>
    </edge>
    <edge id=":1790124156_0" function="internal">
        <lane id=":1790124156_0_0" index="0" disallow="pedestrian tram rail_urban rail rail_electric rail_fast ship" speed="13.89" length="2.08" shape="162.38,274.39 162.36,276.28"/>
        <lane id=":1790124156_0_1" index="1" disallow="pedestrian tram rail_urban rail rail_electric rail_fast ship" speed="13.89" length="2.08" shape="159.18,274.41 159.18,276.67"/>
    </edge>
    <edge id=":1790124158_0" function="internal">
        <lane id=":1790124158_0_0" index="0" disallow="pedestrian tram rail_urban rail rail_electric rail_fast ship" speed="12.20" length="6.09" shape="163.32,280.48 162.57,278.88 162.32,277.67 162.33,276.40 162.38,274.59"/>
        <lane id=":1790124158_0_1" index="1" disallow="pedestrian tram rail_urban rail rail_electric rail_fast ship" speed="13.66" length="7.67" shape="160.51,282.02 159.54,279.99 159.17,278.48 159.14,276.89 159.18,274.61"/>
    </edge>
    <edge id=":1790124158_2" function="internal">
        <lane id=":1790124158_2_0" index="0" disallow="pedestrian tram rail_urban rail rail_electric rail_fast ship" speed="16.67" length="7.29" shape="157.70,283.55 157.17,281.57 157.52,280.00 157.87,278.44 157.31,276.47"/>
        <lane id=":1790124158_2_1" index="1" disallow="pedestrian tram rail_urban rail rail_electric rail_fast ship" speed="16.67" length="7.29" shape="154.89,285.08 154.37,283.11 154.73,281.55 155.08,280.00 154.53,278.04"/>
    </edge>
    <edge id=":1790158059_0" function="internal">
        <lane id=":1790158059_0_0" index="0" disallow="tram rail_urban rail rail_electric rail_fast ship" speed="16.67" length="11.88" shape="183.23,211.92 173.39,218.63"/>
        <lane id=":1790158059_0_1" index="1" disallow="tram rail_urban rail rail_electric rail_fast ship" speed="16.67" length="11.88" shape="185.01,214.58 175.19,221.28"/>
        <lane id=":1790158059_0_2" index="2" disallow="tram rail_urban rail rail_electric rail_fast ship" speed="16.67" length="11.88" shape="186.78,217.25 176.98,223.92"/>
    </edge>
    <edge id=":1790158059_3" function="internal">
        <lane id=":1790158059_3_0" index="0" disallow="tram rail_urban rail rail_electric rail_fast ship" speed="6.36" length="12.54" shape="186.78,217.25 183.23,220.09 181.72,222.52 182.24,224.55 184.81,226.17"/>
    </edge>
    <edge id=":1790158071_0" function="internal">
        <lane id=":1790158071_0_0" index="0" disallow="tram rail_urban rail rail_electric rail_fast ship" speed="16.67" length="8.18" shape="189.61,233.16 196.35,228.67"/>
        <lane id=":1790158071_0_1" index="1" disallow="tram rail_urban rail rail_electric rail_fast ship" speed="16.67" length="8.18" shape="187.84,230.49 194.71,225.92"/>
    </edge>
    <edge id=":1790158071_2" function="internal">
        <lane id=":1790158071_2_0" index="0" disallow="tram rail_urban rail rail_electric rail_fast ship" speed="12.12" length="8.20" shape="186.78,226.67 189.21,226.91 190.95,227.12 192.59,226.92 194.71,225.92"/>
    </edge>
    <edge id=":237251504_0" function="internal">
        <lane id=":237251504_0_0" index="0" disallow="tram rail_urban rail rail_electric rail_fast ship" speed="6.58" length="9.11" shape="214.27,193.64 212.01,194.63 209.95,194.66 208.09,193.73 206.44,191.84"/>
    </edge>
    <edge id=":237251504_1" function="internal">
        <lane id=":237251504_1_0" index="0" disallow="tram rail_urban rail rail_electric rail_fast ship" speed="16.67" length="13.39" shape="214.27,193.64 202.93,200.80"/>
        <lane id=":237251504_1_1" index="1" disallow="tram rail_urban rail rail_electric rail_fast ship" speed="16.67" length="13.39" shape="215.96,196.36 204.65,203.49"/>
    </edge>
    <edge id=":237251504_3" function="internal">
        <lane id=":237251504_3_0" index="0" disallow="tram rail_urban rail rail_electric rail_fast ship" speed="6.23" length="8.26" shape="203.76,193.59 204.86,195.81 205.09,197.74 204.44,199.41 202.93,200.80"/>
    </edge>
    <edge id=":237296759_0" function="internal">
        <lane id=":237296759_0_0" index="0" allow="private emergency authority army vip passenger hov taxi bus coach delivery truck trailer motorcycle evehicle custom1 custom2" speed="25.27" length="3.73" shape="135.21,140.74 133.03,137.72"/>
    </edge>
    <edge id=":237296759_1" function="internal">
        <lane id=":237296759_1_0" index="0" allow="private emergency authority army vip passenger hov taxi bus coach delivery truck trailer motorcycle evehicle custom1 custom2" speed="39.44" length="3.61" shape="132.64,142.99 132.06,141.96 131.63,141.26 131.17,140.59 130.46,139.63"/>
        <lane id=":237296759_1_1" index="1" allow="private emergency authority army vip passenger hov taxi bus coach delivery truck trailer motorcycle evehicle custom1 custom2" speed="39.44" length="3.61" shape="129.86,144.56 129.33,143.63 128.95,143.01 128.53,142.40 127.89,141.54"/>
        <lane id=":237296759_1_2" index="2" allow="private emergency authority army vip passenger hov taxi bus coach delivery truck trailer motorcycle evehicle custom1 custom2" speed="39.44" length="3.61" shape="127.07,146.13 126.60,145.31 126.26,144.75 125.89,144.22 125.33,143.45"/>
    </edge>
    <edge id=":2577612835_0" function="internal">
        <lane id=":2577612835_0_0" index="0" disallow="pedestrian tram rail_urban rail rail_electric rail_fast ship" speed="16.67" length="0.56" shape="181.39,362.22 181.57,362.55"/>
        <lane id=":2577612835_0_1" index="1" disallow="pedestrian tram rail_urban rail rail_electric rail_fast ship" speed="16.67" length="0.56" shape="184.17,360.64 184.41,361.07"/>
        <lane id=":2577612835_0_2" index="2" disallow="pedestrian tram rail_urban rail rail_electric rail_fast ship" speed="16.67" length="0.56" shape="186.95,359.05 187.25,359.60"/>
        <lane id=":2577612835_0_3" index="3" disallow="pedestrian tram rail_urban rail rail_electric rail_fast ship" speed="16.67" length="0.56" shape="189.73,357.47 190.09,358.13"/>
    </edge>
    <edge id=":4737166826_0" function="internal">
        <lane id=":4737166826_0_0" index="0" disallow="tram rail_urban rail rail_electric rail_fast ship" speed="16.67" length="8.19" shape="91.14,149.21 90.19,146.99 89.88,145.32 89.56,143.65 88.58,141.44"/>
        <lane id=":4737166826_0_1" index="1" disallow="tram rail_urban rail rail_electric rail_fast ship" speed="16.67" length="8.19" shape="88.34,150.77 87.40,148.56 87.09,146.89 86.78,145.23 85.81,143.04"/>
        <lane id=":4737166826_0_2" index="2" disallow="tram rail_urban rail rail_electric rail_fast ship" speed="16.67" length="8.19" shape="88.34,150.77 86.97,148.81 85.71,147.69 84.44,146.58 83.03,144.64"/>
    </edge>
    <edge id=":4776044680_0" function="internal">
        <lane id=":4776044680_0_0" index="0" disallow="pedestrian tram rail_urban rail rail_electric rail_fast ship" speed="16.67" length="0.30" shape="210.82,367.82 210.68,367.57"/>
        <lane id=":4776044680_0_1" index="1" disallow="pedestrian tram rail_urban rail rail_electric rail_fast ship" speed="16.67" length="0.30" shape="207.99,369.32 207.85,369.05"/>
        <lane id=":4776044680_0_2" index="2" disallow="pedestrian tram rail_urban rail rail_electric rail_fast ship" speed="16.67" length="0.30" shape="205.15,370.81 205.01,370.54"/>
        <lane id=":4776044680_0_3" index="3" disallow="pedestrian tram rail_urban rail rail_electric rail_fast ship" speed="16.67" length="0.30" shape="202.32,372.30 202.18,372.03"/>
    </edge>
    <edge id=":5186902946_0" function="internal">
        <lane id=":5186902946_0_0" index="0" disallow="tram rail_urban rail rail_electric rail_fast ship" speed="13.89" length="6.90" shape="322.73,235.43 321.10,234.25 320.19,233.20 319.47,231.95 318.42,230.18"/>
    </edge>
    <edge id=":5186902946_1" function="internal">
        <lane id=":5186902946_1_0" index="0" disallow="tram rail_urban rail rail_electric rail_fast ship" speed="8.60" length="6.93" shape="322.73,235.43 320.95,234.47 319.26,233.88 317.67,233.67 316.17,233.85"/>
    </edge>
    <edge id=":571492385_0" function="internal">
        <lane id=":571492385_0_0" index="0" disallow="tram rail_urban rail rail_electric rail_fast ship" speed="15.28" length="18.92" shape="49.85,114.45 52.96,116.63 56.21,119.18 59.54,122.70 62.91,127.84"/>
    </edge>
    <edge id=":571492385_1" function="internal">
        <lane id=":571492385_1_0" index="0" disallow="tram rail_urban rail rail_electric rail_fast ship" speed="16.67" length="18.88" shape="53.67,111.39 62.91,127.84"/>
        <lane id=":571492385_1_1" index="1" disallow="tram rail_urban rail rail_electric rail_fast ship" speed="16.67" length="18.88" shape="56.46,109.83 65.71,126.30"/>
    </edge>
    <edge id=":571492403_0" function="internal">
        <lane id=":571492403_0_0" index="0" allow="private emergency authority army vip passenger hov taxi bus coach delivery truck trailer motorcycle evehicle custom1 custom2" speed="13.89" length="8.31" shape="70.75,152.04 71.85,154.23 72.93,155.56 74.01,156.89 75.09,159.08"/>
    </edge>
    <edge id=":571492403_1" function="internal">
        <lane id=":571492403_1_0" index="0" allow="private emergency authority army vip passenger hov taxi bus coach delivery truck trailer motorcycle evehicle custom1 custom2" speed="13.89" length="7.86" shape="73.74,150.90 74.68,153.00 75.59,154.31 76.69,155.50 78.25,157.25"/>
    </edge>
    <edge id=":571492418_0" function="internal">
        <lane id=":571492418_0_0" index="0" allow="private emergency authority army vip passenger hov taxi bus coach delivery truck trailer motorcycle evehicle custom1 custom2" speed="13.89" length="8.07" shape="89.67,194.34 90.45,196.60 90.65,198.27 90.88,199.92 91.77,202.12"/>
        <lane id=":571492418_0_1" index="1" allow="private emergency authority army vip passenger hov taxi bus coach delivery truck trailer motorcycle evehicle custom1 custom2" speed="13.89" length="8.07" shape="89.67,194.34 90.88,196.35 92.06,197.51 93.27,198.66 94.59,200.61"/>
    </edge>
    <edge id=":571492422_0" function="internal">
        <lane id=":571492422_0_0" index="0" disallow="pedestrian tram rail_urban rail rail_electric rail_fast ship" speed="16.67" length="0.27" shape="145.58,283.61 145.64,283.74"/>
        <lane id=":571492422_0_1" index="1" disallow="pedestrian tram rail_urban rail rail_electric rail_fast ship" speed="16.67" length="0.27" shape="148.46,282.20 148.62,282.57"/>
    </edge>
    <edge id=":571492444_0" function="internal">
        <lane id=":571492444_0_0" index="0" disallow="pedestrian tram rail_urban rail rail_electric rail_fast ship" speed="6.60" length="3.85" shape="339.36,385.52 338.65,386.21 338.13,386.99 337.77,387.86 337.60,388.83"/>
        <lane id=":571492444_0_1" index="1" disallow="pedestrian tram rail_urban rail rail_electric rail_fast ship" speed="4.18" length="1.28" shape="341.37,388.01 341.14,388.24 340.96,388.50 340.84,388.79 340.79,389.11"/>
    </edge>
    <edge id=":6112789308_0" function="internal">
        <lane id=":6112789308_0_0" index="0" disallow="tram rail_urban rail rail_electric rail_fast ship" speed="16.67" length="8.21" shape="85.99,169.93 86.91,172.15 87.19,173.81 87.46,175.48 88.37,177.70"/>
        <lane id=":6112789308_0_1" index="1" disallow="tram rail_urban rail rail_electric rail_fast ship" speed="16.67" length="8.21" shape="88.79,168.40 89.72,170.62 90.01,172.29 90.28,173.96 91.19,176.20"/>
        <lane id=":6112789308_0_2" index="2" disallow="tram rail_urban rail rail_electric rail_fast ship" speed="16.67" length="8.21" shape="88.79,168.40 90.17,170.39 91.42,171.54 92.66,172.69 94.01,174.69"/>
    </edge>
    <edge id=":6135136061_0" function="internal">
        <lane id=":6135136061_0_0" index="0" allow="private emergency authority army vip passenger hov taxi bus coach delivery truck trailer motorcycle evehicle custom1 custom2" speed="13.89" length="8.09" shape="62.55,125.66 63.06,127.99 63.05,129.68 63.09,131.35 63.70,133.65"/>
        <lane id=":6135136061_0_1" index="1" allow="private emergency authority army vip passenger hov taxi bus coach delivery truck trailer motorcycle evehicle custom1 custom2" speed="13.89" length="8.09" shape="62.55,125.66 63.52,127.80 64.55,129.11 65.61,130.39 66.68,132.51"/>
    </edge>
    <edge id=":6235152033_0" function="internal">
        <lane id=":6235152033_0_0" index="0" allow="private emergency authority army vip passenger hov taxi bus coach delivery truck trailer motorcycle evehicle custom1 custom2" speed="13.89" length="0.10" shape="135.32,142.56 135.32,142.56"/>
        <lane id=":6235152033_0_1" index="1" allow="private emergency authority army vip passenger hov taxi bus coach delivery truck trailer motorcycle evehicle custom1 custom2" speed="13.89" length="0.10" shape="132.58,144.22 132.58,144.22"/>
    </edge>
    <edge id=":7127413321_0" function="internal">
        <lane id=":7127413321_0_0" index="0" disallow="tram rail_urban rail rail_electric rail_fast ship" speed="16.67" length="8.21" shape="219.00,386.78 218.11,384.54 217.85,382.87 217.59,381.19 216.69,378.95"/>
        <lane id=":7127413321_0_1" index="1" disallow="tram rail_urban rail rail_electric rail_fast ship" speed="16.67" length="8.21" shape="216.17,388.27 215.28,386.03 215.02,384.36 214.76,382.68 213.86,380.45"/>
        <lane id=":7127413321_0_2" index="2" disallow="tram rail_urban rail rail_electric rail_fast ship" speed="16.67" length="8.21" shape="213.34,389.76 212.44,387.52 212.19,385.85 211.93,384.17 211.03,381.94"/>
        <lane id=":7127413321_0_3" index="3" disallow="tram rail_urban rail rail_electric rail_fast ship" speed="16.67" length="8.21" shape="213.34,389.76 212.00,387.76 210.77,386.59 209.54,385.43 208.20,383.43"/>
    </edge>
    <edge id=":7153303575_0" function="internal">
        <lane id=":7153303575_0_0" index="0" disallow="tram rail_urban rail rail_electric rail_fast ship" speed="16.67" length="7.24" shape="202.76,200.90 200.84,201.84 199.36,202.15 197.88,202.46 195.98,203.43"/>
        <lane id=":7153303575_0_1" index="1" disallow="tram rail_urban rail rail_electric rail_fast ship" speed="16.67" length="7.24" shape="204.48,203.60 202.58,204.53 201.11,204.83 199.64,205.14 197.76,206.09"/>
        <lane id=":7153303575_0_2" index="2" disallow="tram rail_urban rail rail_electric rail_fast ship" speed="16.67" length="7.24" shape="204.48,203.60 202.86,204.94 201.99,206.16 201.14,207.39 199.53,208.76"/>
    </edge>
    <edge id=":74444085_0" function="internal">
        <lane id=":74444085_0_0" index="0" disallow="tram rail_urban rail rail_electric rail_fast ship" speed="6.56" length="8.81" shape="270.53,198.32 272.69,197.36 274.69,197.30 276.52,198.16 278.19,199.92"/>
    </edge>
    <edge id=":74444085_1" function="internal">
        <lane id=":74444085_1_0" index="0" disallow="tram rail_urban rail rail_electric rail_fast ship" speed="16.67" length="10.75" shape="270.53,198.32 279.59,192.49"/>
        <lane id=":74444085_1_1" index="1" disallow="tram rail_urban rail rail_electric rail_fast ship" speed="16.67" length="10.75" shape="268.82,195.62 277.84,189.81"/>
    </edge>
    <edge id=":74444087_0" function="internal">
        <lane id=":74444087_0_0" index="0" disallow="tram rail_urban rail rail_electric rail_fast ship" speed="13.89" length="6.10" shape="308.33,238.00 307.39,239.55 306.76,240.65 306.35,241.82 306.07,243.58"/>
    </edge>
    <edge id=":74444087_1" function="internal">
        <lane id=":74444087_1_0" index="0" disallow="tram rail_urban rail rail_electric rail_fast ship" speed="8.93" length="6.03" shape="304.03,238.15 305.08,239.61 305.78,240.69 306.12,241.86 306.07,243.58"/>
    </edge>
    <edge id=":74444100_0" function="internal">
        <lane id=":74444100_0_0" index="0" disallow="tram rail_urban rail rail_electric rail_fast ship" speed="6.46" length="9.03" shape="293.04,190.45 291.95,188.22 291.84,186.19 292.72,184.36 294.59,182.72"/>
    </edge>
    <edge id=":74444100_1" function="internal">
        <lane id=":74444100_1_0" index="0" disallow="tram rail_urban rail rail_electric rail_fast ship" speed="16.67" length="11.21" shape="285.20,188.83 294.59,182.72"/>
        <lane id=":74444100_1_1" index="1" disallow="tram rail_urban rail rail_electric rail_fast ship" speed="16.67" length="11.21" shape="283.45,186.15 292.85,180.04"/>
    </edge>
    <edge id=":74454947_0" function="internal">
        <lane id=":74454947_0_0" index="0" allow="private emergency authority army vip passenger hov taxi bus coach delivery truck trailer motorcycle evehicle custom1 custom2" speed="15.28" length="8.98" shape="140.77,289.47 142.10,291.71 142.75,293.39 143.34,295.11 144.49,297.47"/>
        <lane id=":74454947_0_1" index="1" allow="private emergency authority army vip passenger hov taxi bus coach delivery truck trailer motorcycle evehicle custom1 custom2" speed="15.28" length="8.98" shape="143.41,287.65 144.79,289.96 145.46,291.69 146.08,293.46 147.27,295.89"/>
    </edge>
    <edge id=":74454947_2" function="internal">
        <lane id=":74454947_2_0" index="0" disallow="pedestrian tram rail_urban rail rail_electric rail_fast ship" speed="16.67" length="8.80" shape="146.52,286.00 147.45,288.52 148.07,290.26 148.79,291.94 150.05,294.30"/>
        <lane id=":74454947_2_1" index="1" disallow="pedestrian tram rail_urban rail rail_electric rail_fast ship" speed="16.67" length="8.80" shape="149.50,284.84 150.38,287.23 150.96,288.88 151.64,290.48 152.83,292.72"/>
    </edge>
    <edge id=":cluster_1275666727_4600634119_4600634120_74460234_0" function="internal">
        <lane id=":cluster_1275666727_4600634119_4600634120_74460234_0_0" index="0" disallow="tram rail_urban rail rail_electric rail_fast ship" speed="6.48" length="9.06" shape="144.64,237.76 142.25,238.50 140.22,238.29 138.54,237.13 137.21,235.04"/>
    </edge>
    <edge id=":cluster_1275666727_4600634119_4600634120_74460234_1" function="internal">
        <lane id=":cluster_1275666727_4600634119_4600634120_74460234_1_0" index="0" disallow="tram rail_urban rail rail_electric rail_fast ship" speed="12.29" length="35.33" shape="144.64,237.76 137.65,242.75 134.20,249.45 134.29,257.88 137.93,268.02"/>
        <lane id=":cluster_1275666727_4600634119_4600634120_74460234_1_1" index="1" disallow="tram rail_urban rail rail_electric rail_fast ship" speed="11.39" length="30.19" shape="146.08,240.62 140.25,244.83 137.43,250.57 137.61,257.83 140.80,266.61"/>
    </edge>
    <edge id=":cluster_1275666727_4600634119_4600634120_74460234_3" function="internal">
        <lane id=":cluster_1275666727_4600634119_4600634120_74460234_3_0" index="0" disallow="tram rail_urban rail rail_electric rail_fast ship" speed="5.44" length="13.07" shape="147.52,243.48 145.47,246.95 145.44,249.46 147.42,250.98 151.42,251.54"/>
    </edge>
    <edge id=":cluster_1275666727_4600634119_4600634120_74460234_4" function="internal">
        <lane id=":cluster_1275666727_4600634119_4600634120_74460234_4_0" index="0" disallow="tram rail_urban rail rail_electric rail_fast ship" speed="16.67" length="29.98" shape="149.73,262.22 137.21,235.04"/>
        <lane id=":cluster_1275666727_4600634119_4600634120_74460234_4_1" index="1" disallow="tram rail_urban rail rail_electric rail_fast ship" speed="16.67" length="29.98" shape="146.86,263.63 134.29,236.35"/>
    </edge>
    <edge id=":cluster_1275666727_4600634119_4600634120_74460234_6" function="internal">
        <lane id=":cluster_1275666727_4600634119_4600634120_74460234_6_0" index="0" disallow="tram rail_urban rail rail_electric rail_fast ship" speed="4.85" length="6.55" shape="146.86,263.63 144.23,262.10 142.34,262.09 141.36,263.38"/>
    </edge>
    <edge id=":cluster_1275666727_4600634119_4600634120_74460234_12" function="internal">
        <lane id=":cluster_1275666727_4600634119_4600634120_74460234_12_0" index="0" disallow="tram rail_urban rail rail_electric rail_fast ship" speed="4.85" length="3.31" shape="141.36,263.38 141.20,263.59 140.80,266.61"/>
    </edge>
    <edge id=":cluster_1275666727_4600634119_4600634120_74460234_7" function="internal">
        <lane id=":cluster_1275666727_4600634119_4600634120_74460234_7_0" index="0" disallow="tram rail_urban rail rail_electric rail_fast ship" speed="16.67" length="30.49" shape="122.60,241.60 137.93,268.02"/>