<?xml version="1.0" encoding="UTF-8"?>

<!-- generated on 2023-07-20 11:45:46 by Eclipse SUMO netconvert Version 1.17.0
<configuration xmlns:xsi="http://www.w3.org/2001/XMLSchema-instance" xsi:noNamespaceSchemaLocation="http://sumo.dlr.de/xsd/netconvertConfiguration.xsd">

    <input>
        <sumo-net-file value="osm.net.xml.gz"/>
    </input>

    <output>
        <output-file value="osm.net.xml"/>
        <output.street-names value="true"/>
    </output>

    <processing>
        <geometry.min-radius.fix.railways value="false"/>
        <geometry.max-grade.fix value="false"/>
        <offset.disable-normalization value="true"/>
        <lefthand value="1"/>
    </processing>

    <junctions>
        <no-turnarounds value="true"/>
        <junctions.corner-detail value="5"/>
        <junctions.limit-turn-speed value="5.50"/>
        <rectangular-lane-cut value="0"/>
    </junctions>

    <pedestrian>
        <walkingareas value="0"/>
    </pedestrian>

</configuration>
-->

<net version="1.16" junctionCornerDetail="5" lefthand="true" limitTurnSpeed="5.50" xmlns:xsi="http://www.w3.org/2001/XMLSchema-instance" xsi:noNamespaceSchemaLocation="http://sumo.dlr.de/xsd/net_file.xsd">

    <location netOffset="-371826.24,-148150.16" convBoundary="0.00,0.00,1090.09,557.63" origBoundary="103.847898,1.340087,103.857695,1.345134" projParameter="+proj=utm +zone=48 +ellps=WGS84 +datum=WGS84 +units=m +no_defs"/>

    <type id="highway.bridleway" priority="1" numLanes="1" speed="2.78" allow="pedestrian" oneway="1" width="2.00"/>
    <type id="highway.bus_guideway" priority="1" numLanes="1" speed="27.78" allow="bus" oneway="1"/>
    <type id="highway.cycleway" priority="1" numLanes="1" speed="5.56" allow="bicycle" oneway="0" width="1.00"/>
    <type id="highway.footway" priority="1" numLanes="1" speed="2.78" allow="pedestrian" oneway="1" width="2.00"/>
    <type id="highway.ford" priority="1" numLanes="1" speed="2.78" allow="army" oneway="0"/>
    <type id="highway.living_street" priority="2" numLanes="1" speed="2.78" disallow="tram rail_urban rail rail_electric rail_fast ship" oneway="0"/>
    <type id="highway.motorway" priority="14" numLanes="2" speed="39.44" allow="private emergency authority army vip passenger hov taxi bus coach delivery truck trailer motorcycle evehicle custom1 custom2" oneway="1"/>
    <type id="highway.motorway_link" priority="9" numLanes="1" speed="22.22" allow="private emergency authority army vip passenger hov taxi bus coach delivery truck trailer motorcycle evehicle custom1 custom2" oneway="1"/>
    <type id="highway.path" priority="1" numLanes="1" speed="5.56" allow="pedestrian bicycle" oneway="0" width="2.00"/>
    <type id="highway.pedestrian" priority="1" numLanes="1" speed="2.78" allow="pedestrian" oneway="1" width="2.00"/>
    <type id="highway.primary" priority="12" numLanes="2" speed="27.78" disallow="tram rail_urban rail rail_electric rail_fast ship" oneway="0"/>
    <type id="highway.primary_link" priority="7" numLanes="1" speed="22.22" disallow="tram rail_urban rail rail_electric rail_fast ship" oneway="0"/>
    <type id="highway.raceway" priority="15" numLanes="2" speed="83.33" allow="vip" oneway="0"/>
    <type id="highway.residential" priority="3" numLanes="1" speed="13.89" disallow="tram rail_urban rail rail_electric rail_fast ship" oneway="0"/>
    <type id="highway.secondary" priority="11" numLanes="1" speed="27.78" disallow="tram rail_urban rail rail_electric rail_fast ship" oneway="0"/>
    <type id="highway.secondary_link" priority="6" numLanes="1" speed="22.22" disallow="tram rail_urban rail rail_electric rail_fast ship" oneway="0"/>
    <type id="highway.service" priority="1" numLanes="1" speed="5.56" allow="pedestrian delivery bicycle" oneway="0"/>
    <type id="highway.stairs" priority="1" numLanes="1" speed="1.39" allow="pedestrian" oneway="1" width="2.00"/>
    <type id="highway.step" priority="1" numLanes="1" speed="1.39" allow="pedestrian" oneway="1" width="2.00"/>
    <type id="highway.steps" priority="1" numLanes="1" speed="1.39" allow="pedestrian" oneway="1" width="2.00"/>
    <type id="highway.tertiary" priority="10" numLanes="1" speed="22.22" disallow="tram rail_urban rail rail_electric rail_fast ship" oneway="0"/>
    <type id="highway.tertiary_link" priority="5" numLanes="1" speed="22.22" disallow="tram rail_urban rail rail_electric rail_fast ship" oneway="0"/>
    <type id="highway.track" priority="1" numLanes="1" speed="5.56" allow="pedestrian motorcycle moped bicycle" oneway="0"/>
    <type id="highway.trunk" priority="13" numLanes="2" speed="27.78" disallow="pedestrian bicycle tram rail_urban rail rail_electric rail_fast ship" oneway="0"/>
    <type id="highway.trunk_link" priority="8" numLanes="1" speed="22.22" disallow="pedestrian bicycle tram rail_urban rail rail_electric rail_fast ship" oneway="0"/>
    <type id="highway.unclassified" priority="4" numLanes="1" speed="13.89" disallow="tram rail_urban rail rail_electric rail_fast ship" oneway="0"/>
    <type id="highway.unsurfaced" priority="1" numLanes="1" speed="8.33" disallow="tram rail_urban rail rail_electric rail_fast ship" oneway="0"/>
    <type id="railway.highspeed" priority="21" numLanes="1" speed="69.44" allow="rail_fast" oneway="1"/>
    <type id="railway.light_rail" priority="19" numLanes="1" speed="27.78" allow="rail_urban" oneway="1"/>
    <type id="railway.preserved" priority="16" numLanes="1" speed="27.78" allow="rail" oneway="1"/>
    <type id="railway.rail" priority="20" numLanes="1" speed="44.44" allow="rail" oneway="1"/>
    <type id="railway.subway" priority="18" numLanes="1" speed="27.78" allow="rail_urban" oneway="1"/>
    <type id="railway.tram" priority="17" numLanes="1" speed="13.89" allow="tram" oneway="1"/>

    <edge id=":1090501713_0" function="internal">
        <lane id=":1090501713_0_0" index="0" disallow="pedestrian bicycle tram rail_urban rail rail_electric rail_fast ship" speed="12.80" length="6.95" shape="896.70,381.10 898.70,381.36 900.02,381.84 901.24,382.63 902.96,383.79"/>
    </edge>
    <edge id=":1090501713_1" function="internal">
        <lane id=":1090501713_1_0" index="0" disallow="pedestrian bicycle tram rail_urban rail rail_electric rail_fast ship" speed="13.89" length="7.61" shape="896.91,377.91 899.08,378.32 900.49,379.02 901.91,379.72 904.08,380.15"/>
        <lane id=":1090501713_1_1" index="1" disallow="pedestrian bicycle tram rail_urban rail rail_electric rail_fast ship" speed="13.89" length="7.61" shape="897.12,374.72 899.30,375.13 900.72,375.82 902.14,376.53 904.32,376.96"/>
        <lane id=":1090501713_1_2" index="2" disallow="pedestrian bicycle tram rail_urban rail rail_electric rail_fast ship" speed="13.89" length="7.61" shape="897.33,371.52 899.52,371.94 900.95,372.63 902.37,373.33 904.57,373.77"/>
    </edge>
    <edge id=":1090501722_0" function="internal">
        <lane id=":1090501722_0_0" index="0" disallow="tram rail_urban rail rail_electric rail_fast ship" speed="13.89" length="7.57" shape="916.33,395.70 917.23,397.65 917.34,399.17 917.30,400.77 917.76,402.93"/>
        <lane id=":1090501722_0_1" index="1" disallow="tram rail_urban rail rail_electric rail_fast ship" speed="13.89" length="7.57" shape="916.33,395.70 917.72,397.51 918.86,398.64 919.84,399.84 920.78,401.86"/>
    </edge>
    <edge id=":1370084061_0" function="internal">
        <lane id=":1370084061_0_0" index="0" disallow="pedestrian bicycle tram rail_urban rail rail_electric rail_fast ship" speed="11.11" length="12.05" shape="569.73,463.38 572.72,464.83 575.46,464.41 578.22,463.71 581.26,464.33"/>
    </edge>
    <edge id=":1370084061_1" function="internal">
        <lane id=":1370084061_1_0" index="0" disallow="pedestrian bicycle tram rail_urban rail rail_electric rail_fast ship" speed="11.11" length="11.08" shape="571.87,461.01 574.47,462.38 576.74,462.01 579.21,461.08 582.40,460.80"/>
    </edge>
    <edge id=":1370084061_2" function="internal">
        <lane id=":1370084061_2_0" index="0" allow="bus" speed="3.65" length="4.67" shape="571.87,461.01 573.30,461.22 574.13,460.89 574.37,460.03 574.02,458.63"/>
    </edge>
    <edge id=":175959439-AddedOnRampNode_0" function="internal">
        <lane id=":175959439-AddedOnRampNode_0_0" index="0" disallow="pedestrian bicycle tram rail_urban rail rail_electric rail_fast ship" speed="19.44" length="8.00" shape="903.56,333.81 895.56,333.69"/>
        <lane id=":175959439-AddedOnRampNode_0_1" index="1" disallow="pedestrian bicycle tram rail_urban rail rail_electric rail_fast ship" speed="19.44" length="8.00" shape="903.51,337.01 895.51,336.89"/>
        <lane id=":175959439-AddedOnRampNode_0_2" index="2" disallow="pedestrian bicycle tram rail_urban rail rail_electric rail_fast ship" speed="19.44" length="8.00" shape="903.47,340.21 895.47,340.09"/>
        <lane id=":175959439-AddedOnRampNode_0_3" index="3" disallow="pedestrian bicycle tram rail_urban rail rail_electric rail_fast ship" speed="19.44" length="8.00" shape="903.42,343.41 895.42,343.29"/>
        <lane id=":175959439-AddedOnRampNode_0_4" index="4" disallow="pedestrian bicycle tram rail_urban rail rail_electric rail_fast ship" speed="19.44" length="8.00" shape="903.38,346.61 895.38,346.49"/>
    </edge>
    <edge id=":239914549_0" function="internal">
        <lane id=":239914549_0_0" index="0" disallow="pedestrian bicycle tram rail_urban rail rail_electric rail_fast ship" speed="12.94" length="20.04" shape="940.00,391.79 943.14,388.06 947.00,385.31 951.56,383.53 956.83,382.73"/>
        <lane id=":239914549_0_1" index="1" disallow="pedestrian bicycle tram rail_urban rail rail_electric rail_fast ship" speed="14.65" length="20.04" shape="938.91,388.13 942.68,384.59 946.89,381.98 951.55,380.30 956.66,379.54"/>
    </edge>
    <edge id=":239914549_2" function="internal">
        <lane id=":239914549_2_0" index="0" disallow="pedestrian bicycle tram rail_urban rail rail_electric rail_fast ship" speed="16.66" length="19.21" shape="937.39,382.00 956.83,382.73"/>
        <lane id=":239914549_2_1" index="1" disallow="pedestrian bicycle tram rail_urban rail rail_electric rail_fast ship" speed="16.66" length="19.21" shape="937.46,378.80 956.66,379.54"/>
        <lane id=":239914549_2_2" index="2" disallow="pedestrian bicycle tram rail_urban rail rail_electric rail_fast ship" speed="16.66" length="19.21" shape="937.53,375.60 956.48,376.34"/>
    </edge>
    <edge id=":239934388_0" function="internal">
        <lane id=":239934388_0_0" index="0" disallow="pedestrian bicycle tram rail_urban rail rail_electric rail_fast ship" speed="16.66" length="10.79" shape="727.86,325.63 724.69,325.32 722.56,324.83 720.48,324.07 717.48,322.93"/>
        <lane id=":239934388_0_1" index="1" disallow="pedestrian bicycle tram rail_urban rail rail_electric rail_fast ship" speed="16.66" length="11.34" shape="727.66,328.82 724.33,328.51 722.08,328.03 719.90,327.25 716.74,326.06"/>
    </edge>
    <edge id=":239934388_2" function="internal">
        <lane id=":239934388_2_0" index="0" disallow="pedestrian bicycle tram rail_urban rail rail_electric rail_fast ship" speed="19.44" length="11.37" shape="727.47,332.02 724.11,331.52 721.87,330.77 719.62,330.06 716.25,329.71"/>
        <lane id=":239934388_2_1" index="1" disallow="pedestrian bicycle tram rail_urban rail rail_electric rail_fast ship" speed="19.44" length="11.37" shape="727.28,335.21 723.96,334.72 721.74,333.97 719.52,333.26 716.20,332.91"/>
        <lane id=":239934388_2_2" index="2" disallow="pedestrian bicycle tram rail_urban rail rail_electric rail_fast ship" speed="19.44" length="11.37" shape="727.08,338.40 723.80,337.92 721.61,337.17 719.42,336.46 716.14,336.11"/>
    </edge>
    <edge id=":239934510_0" function="internal">
        <lane id=":239934510_0_0" index="0" disallow="pedestrian bicycle tram rail_urban rail rail_electric rail_fast ship" speed="19.44" length="11.46" shape="592.37,337.22 581.03,338.88"/>
        <lane id=":239934510_0_1" index="1" disallow="pedestrian bicycle tram rail_urban rail rail_electric rail_fast ship" speed="19.44" length="12.15" shape="592.68,340.41 580.66,342.17"/>
    </edge>
    <edge id=":239934510_2" function="internal">
        <lane id=":239934510_2_0" index="0" disallow="pedestrian bicycle tram rail_urban rail rail_electric rail_fast ship" speed="19.44" length="12.01" shape="592.99,343.59 589.36,343.93 586.88,344.20 584.44,344.65 580.90,345.52"/>
        <lane id=":239934510_2_1" index="1" disallow="pedestrian bicycle tram rail_urban rail rail_electric rail_fast ship" speed="19.44" length="12.01" shape="593.30,346.78 589.82,347.10 587.44,347.36 585.09,347.79 581.71,348.61"/>
    </edge>
    <edge id=":239935417_0" function="internal">
        <lane id=":239935417_0_0" index="0" disallow="pedestrian bicycle tram rail_urban rail rail_electric rail_fast ship" speed="19.44" length="8.07" shape="437.72,387.94 440.00,387.78 441.58,388.07 443.17,388.41 445.47,388.38"/>
        <lane id=":239935417_0_1" index="1" disallow="pedestrian bicycle tram rail_urban rail rail_electric rail_fast ship" speed="19.44" length="8.07" shape="437.15,384.79 439.48,384.62 441.10,384.91 442.73,385.24 445.08,385.20"/>
        <lane id=":239935417_0_2" index="2" disallow="pedestrian bicycle tram rail_urban rail rail_electric rail_fast ship" speed="19.44" length="8.07" shape="436.57,381.65 438.96,381.47 440.62,381.75 442.28,382.07 444.69,382.02"/>
        <lane id=":239935417_0_3" index="3" disallow="pedestrian bicycle tram rail_urban rail rail_electric rail_fast ship" speed="19.44" length="8.07" shape="436.57,381.65 438.91,380.97 440.42,380.16 441.94,379.39 444.30,378.85"/>
    </edge>
    <edge id=":239951901_0" function="internal">
        <lane id=":239951901_0_0" index="0" disallow="pedestrian bicycle tram rail_urban rail rail_electric rail_fast ship" speed="11.11" length="17.57" shape="616.71,158.94 617.33,164.58 617.04,169.00 616.37,172.75 615.83,176.37"/>
    </edge>
    <edge id=":239951901_1" function="internal">
        <lane id=":239951901_1_0" index="0" disallow="pedestrian bicycle tram rail_urban rail rail_electric rail_fast ship" speed="11.11" length="18.13" shape="619.85,158.33 620.43,164.19 620.05,168.80 619.42,172.69 619.26,176.36"/>
    </edge>
    <edge id=":243418592_0" function="internal">
        <lane id=":243418592_0_0" index="0" disallow="pedestrian bicycle tram rail_urban rail rail_electric rail_fast ship" speed="11.11" length="0.31" shape="637.72,389.11 637.72,389.20 637.73,389.26 637.72,389.32 637.71,389.41"/>
    </edge>
    <edge id=":245170955_0" function="internal">
        <lane id=":245170955_0_0" index="0" disallow="pedestrian bicycle tram rail_urban rail rail_electric rail_fast ship" speed="15.28" length="4.91" shape="553.70,339.28 552.47,340.06 551.60,340.58 550.68,340.95 549.27,341.28"/>
    </edge>
    <edge id=":245170955_1" function="internal">
        <lane id=":245170955_1_0" index="0" disallow="pedestrian bicycle tram rail_urban rail rail_electric rail_fast ship" speed="19.44" length="4.95" shape="554.71,342.96 553.25,343.27 552.29,343.64 551.34,344.03 549.90,344.42"/>
        <lane id=":245170955_1_1" index="1" disallow="pedestrian bicycle tram rail_urban rail rail_electric rail_fast ship" speed="19.44" length="4.95" shape="555.16,346.13 553.76,346.43 552.84,346.80 551.92,347.18 550.53,347.56"/>
    </edge>
    <edge id=":3120081653_0" function="internal">
        <lane id=":3120081653_0_0" index="0" disallow="pedestrian bicycle tram rail_urban rail rail_electric rail_fast ship" speed="12.50" length="19.13" shape="704.29,364.77 707.64,362.69 711.46,360.69 716.16,359.50 722.18,359.88"/>
    </edge>
    <edge id=":3120081653_1" function="internal">
        <lane id=":3120081653_1_0" index="0" disallow="pedestrian bicycle tram rail_urban rail rail_electric rail_fast ship" speed="13.89" length="19.31" shape="703.28,359.62 708.92,359.39 712.80,359.03 716.65,359.03 722.18,359.88"/>
        <lane id=":3120081653_1_1" index="1" disallow="pedestrian bicycle tram rail_urban rail rail_electric rail_fast ship" speed="13.89" length="19.31" shape="703.28,356.42 709.11,356.19 713.13,355.83 717.11,355.86 722.83,356.75"/>
    </edge>
    <edge id=":3371655131_0" function="internal">
        <lane id=":3371655131_0_0" index="0" disallow="pedestrian bicycle tram rail_urban rail rail_electric rail_fast ship" speed="11.11" length="0.10" shape="631.72,220.45 631.72,220.45"/>
    </edge>
    <edge id=":3792658041_0" function="internal">
        <lane id=":3792658041_0_0" index="0" allow="bus" speed="4.72" length="9.35" shape="524.40,409.03 521.55,408.55 519.87,409.17 519.36,410.89 520.02,413.70"/>
    </edge>
    <edge id=":3792658041_1" function="internal">
        <lane id=":3792658041_1_0" index="0" disallow="pedestrian bicycle tram rail_urban rail rail_electric rail_fast ship" speed="11.11" length="2.53" shape="521.68,408.89 522.21,411.36"/>
    </edge>
    <edge id=":439986666_0" function="internal">
        <lane id=":439986666_0_0" index="0" disallow="pedestrian bicycle tram rail_urban rail rail_electric rail_fast ship" speed="19.44" length="6.80" shape="303.62,411.24 305.59,411.02 306.97,411.18 308.36,411.36 310.34,411.20"/>
        <lane id=":439986666_0_1" index="1" disallow="pedestrian bicycle tram rail_urban rail rail_electric rail_fast ship" speed="19.44" length="6.80" shape="302.95,408.11 304.95,407.88 306.35,408.04 307.75,408.22 309.76,408.05"/>
    </edge>
    <edge id=":439986666_2" function="internal">
        <lane id=":439986666_2_0" index="0" disallow="pedestrian bicycle tram rail_urban rail rail_electric rail_fast ship" speed="16.66" length="6.39" shape="302.89,404.38 304.75,404.79 306.04,405.07 307.33,405.14 309.19,404.90"/>
    </edge>
    <edge id=":439986675_0" function="internal">
        <lane id=":439986675_0_0" index="0" disallow="pedestrian bicycle tram rail_urban rail rail_electric rail_fast ship" speed="13.89" length="15.30" shape="275.68,426.47 290.77,423.91"/>
    </edge>
    <edge id=":439986675_1" function="internal">
        <lane id=":439986675_1_0" index="0" disallow="pedestrian bicycle tram rail_urban rail rail_electric rail_fast ship" speed="13.89" length="24.75" shape="265.81,424.12 290.33,420.74"/>
    </edge>
    <edge id=":439988356_0" function="internal">
        <lane id=":439988356_0_0" index="0" disallow="pedestrian bicycle tram rail_urban rail rail_electric rail_fast ship" speed="11.11" length="8.20" shape="416.19,404.22 418.58,404.02 420.25,404.27 421.93,404.55 424.33,404.40"/>
    </edge>
    <edge id=":439988375_0" function="internal">
        <lane id=":439988375_0_0" index="0" disallow="pedestrian bicycle tram rail_urban rail rail_electric rail_fast ship" speed="13.89" length="8.31" shape="628.41,119.87 627.86,117.53 628.08,115.79 628.32,114.04 627.87,111.66"/>
        <lane id=":439988375_0_1" index="1" disallow="pedestrian bicycle tram rail_urban rail rail_electric rail_fast ship" speed="13.89" length="8.31" shape="625.44,121.09 624.88,118.70 625.09,116.94 625.32,115.16 624.86,112.74"/>
        <lane id=":439988375_0_2" index="2" disallow="pedestrian bicycle tram rail_urban rail rail_electric rail_fast ship" speed="13.89" length="8.31" shape="625.44,121.09 621.85,113.82"/>
    </edge>
    <edge id=":439988375_3" function="internal">
        <lane id=":439988375_3_0" index="0" disallow="pedestrian bicycle tram rail_urban rail rail_electric rail_fast ship" speed="12.50" length="11.76" shape="621.75,125.84 621.81,122.66 622.34,120.09 622.61,117.39 621.85,113.82"/>
        <lane id=":439988375_3_1" index="1" disallow="pedestrian bicycle tram rail_urban rail rail_electric rail_fast ship" speed="12.50" length="11.76" shape="621.75,125.84 621.32,122.78 620.79,120.50 620.02,118.16 618.84,114.91"/>
    </edge>
    <edge id=":439988376_0" function="internal">
        <lane id=":439988376_0_0" index="0" disallow="pedestrian bicycle tram rail_urban rail rail_electric rail_fast ship" speed="12.50" length="20.89" shape="603.37,105.12 605.53,111.62 606.27,117.05 606.33,121.64 606.45,125.60"/>
    </edge>
    <edge id=":439988376_1" function="internal">
        <lane id=":439988376_1_0" index="0" disallow="pedestrian bicycle tram rail_urban rail rail_electric rail_fast ship" speed="12.50" length="21.58" shape="606.30,103.83 608.31,109.86 608.73,114.36 608.81,118.84 609.76,124.84"/>
        <lane id=":439988376_1_1" index="1" disallow="pedestrian bicycle tram rail_urban rail rail_electric rail_fast ship" speed="12.50" length="21.58" shape="609.23,102.55 611.28,108.68 611.74,113.26 611.84,117.81 612.81,123.84"/>
    </edge>
    <edge id=":4747801087_0" function="internal">
        <lane id=":4747801087_0_0" index="0" disallow="pedestrian bicycle tram rail_urban rail rail_electric rail_fast ship" speed="12.50" length="0.36" shape="390.98,412.20 391.14,412.19 391.25,412.18 391.36,412.16 391.51,412.13"/>
        <lane id=":4747801087_0_1" index="1" disallow="pedestrian bicycle tram rail_urban rail rail_electric rail_fast ship" speed="12.50" length="0.36" shape="390.74,409.01 390.79,409.00 390.83,409.00 390.87,408.99 390.92,408.98"/>
    </edge>
    <edge id=":4749650034_0" function="internal">
        <lane id=":4749650034_0_0" index="0" disallow="tram rail_urban rail rail_electric rail_fast ship" speed="13.89" length="8.02" shape="592.25,75.23 592.86,77.56 592.93,79.25 593.04,80.93 593.77,83.22"/>
        <lane id=":4749650034_0_1" index="1" disallow="tram rail_urban rail rail_electric rail_fast ship" speed="13.89" length="8.02" shape="595.24,74.10 595.83,76.39 595.89,78.05 595.99,79.70 596.70,81.93"/>
        <lane id=":4749650034_0_2" index="2" disallow="tram rail_urban rail rail_electric rail_fast ship" speed="13.89" length="8.02" shape="598.24,72.98 598.81,75.22 598.86,76.85 598.94,78.46 599.63,80.65"/>
    </edge>
    <edge id=":4774654571_0" function="internal">
        <lane id=":4774654571_0_0" index="0" disallow="pedestrian bicycle tram rail_urban rail rail_electric rail_fast ship" speed="19.44" length="3.42" shape="1002.06,335.28 998.46,335.15"/>
        <lane id=":4774654571_0_1" index="1" disallow="pedestrian bicycle tram rail_urban rail rail_electric rail_fast ship" speed="19.44" length="3.42" shape="1001.92,338.48 998.41,338.35"/>
        <lane id=":4774654571_0_2" index="2" disallow="pedestrian bicycle tram rail_urban rail rail_electric rail_fast ship" speed="19.44" length="3.42" shape="1001.78,341.67 998.36,341.55"/>
        <lane id=":4774654571_0_3" index="3" disallow="pedestrian bicycle tram rail_urban rail rail_electric rail_fast ship" speed="19.44" length="3.42" shape="1001.64,344.87 998.32,344.75"/>
        <lane id=":4774654571_0_4" index="4" disallow="pedestrian bicycle tram rail_urban rail rail_electric rail_fast ship" speed="19.44" length="3.42" shape="1001.50,348.07 998.27,347.95"/>
    </edge>
    <edge id=":4774654571_5" function="internal">
        <lane id=":4774654571_5_0" index="0" disallow="pedestrian bicycle tram rail_urban rail rail_electric rail_fast ship" speed="20.83" length="3.73" shape="1002.18,332.46 1001.10,332.24 1000.35,332.09 999.60,332.00 998.50,331.96"/>
    </edge>
    <edge id=":4889413665_0" function="internal">
        <lane id=":4889413665_0_0" index="0" disallow="pedestrian bicycle tram rail_urban rail rail_electric rail_fast ship" speed="16.66" length="33.72" shape="505.64,380.97 516.43,379.08 524.60,376.85 531.50,374.79 538.48,373.44"/>
        <lane id=":4889413665_0_1" index="1" disallow="pedestrian bicycle tram rail_urban rail rail_electric rail_fast ship" speed="16.66" length="33.72" shape="505.25,377.80 516.03,375.91 524.20,373.67 531.10,371.62 538.07,370.27"/>
    </edge>
    <edge id=":4889413665_2" function="internal">
        <lane id=":4889413665_2_0" index="0" disallow="pedestrian bicycle tram rail_urban rail rail_electric rail_fast ship" speed="19.44" length="33.54" shape="504.86,374.62 515.60,372.89 523.75,370.90 530.60,368.85 537.46,366.95"/>
        <lane id=":4889413665_2_1" index="1" disallow="pedestrian bicycle tram rail_urban rail rail_electric rail_fast ship" speed="19.44" length="33.17" shape="504.47,371.45 515.07,369.73 523.11,367.76 529.88,365.73 536.71,363.84"/>
    </edge>
    <edge id=":4889413666_0" function="internal">
        <lane id=":4889413666_0_0" index="0" disallow="pedestrian bicycle tram rail_urban rail rail_electric rail_fast ship" speed="12.50" length="13.70" shape="577.88,374.70 580.22,372.28 582.45,370.34 585.25,368.86 589.32,367.77"/>
    </edge>
    <edge id=":4889413666_1" function="internal">
        <lane id=":4889413666_1_0" index="0" disallow="pedestrian bicycle tram rail_urban rail rail_electric rail_fast ship" speed="13.89" length="13.70" shape="575.59,369.35 589.32,367.77"/>
        <lane id=":4889413666_1_1" index="1" disallow="pedestrian bicycle tram rail_urban rail rail_electric rail_fast ship" speed="13.89" length="13.70" shape="575.24,366.16 588.75,364.62"/>
    </edge>
    <edge id=":5187128917_0" function="internal">
        <lane id=":5187128917_0_0" index="0" disallow="pedestrian bicycle tram rail_urban rail rail_electric rail_fast ship" speed="13.89" length="0.30" shape="836.14,375.52 836.46,375.54"/>
        <lane id=":5187128917_0_1" index="1" disallow="pedestrian bicycle tram rail_urban rail rail_electric rail_fast ship" speed="13.89" length="0.30" shape="836.37,372.33 836.67,372.35"/>
        <lane id=":5187128917_0_2" index="2" disallow="pedestrian bicycle tram rail_urban rail rail_electric rail_fast ship" speed="13.89" length="0.30" shape="836.60,369.14 836.88,369.16"/>
    </edge>
    <edge id=":5187128918_0" function="internal">
        <lane id=":5187128918_0_0" index="0" disallow="pedestrian bicycle tram rail_urban rail rail_electric rail_fast ship" speed="15.28" length="25.44" shape="985.43,363.44 990.08,362.92 996.22,362.23 1003.30,361.68 1010.78,361.55"/>
    </edge>
    <edge id=":5187128918_1" function="internal">
        <lane id=":5187128918_1_0" index="0" disallow="pedestrian bicycle tram rail_urban rail rail_electric rail_fast ship" speed="19.44" length="25.42" shape="985.37,359.63 1010.78,361.55"/>
        <lane id=":5187128918_1_1" index="1" disallow="pedestrian bicycle tram rail_urban rail rail_electric rail_fast ship" speed="19.44" length="25.42" shape="985.57,356.44 1010.86,358.36"/>
    </edge>
    <edge id=":5227235829_0" function="internal">
        <lane id=":5227235829_0_0" index="0" disallow="pedestrian bicycle tram rail_urban rail rail_electric rail_fast ship" speed="11.11" length="0.10" shape="616.46,223.00 616.46,223.00"/>
    </edge>
    <edge id=":5280637813_0" function="internal">
        <lane id=":5280637813_0_0" index="0" disallow="pedestrian bicycle tram rail_urban rail rail_electric rail_fast ship" speed="19.44" length="0.28" shape="1055.81,378.02 1056.03,378.02"/>
        <lane id=":5280637813_0_1" index="1" disallow="pedestrian bicycle tram rail_urban rail rail_electric rail_fast ship" speed="19.44" length="0.28" shape="1055.69,374.83 1055.97,374.82"/>
        <lane id=":5280637813_0_2" index="2" disallow="pedestrian bicycle tram rail_urban rail rail_electric rail_fast ship" speed="19.44" length="0.28" shape="1055.57,371.63 1055.91,371.62"/>
    </edge>
    <edge id=":5280770480_0" function="internal">
        <lane id=":5280770480_0_0" index="0" disallow="pedestrian bicycle tram rail_urban rail rail_electric rail_fast ship" speed="19.44" length="8.38" shape="1059.76,343.58 1057.56,343.00 1056.27,341.82 1054.98,340.58 1052.79,339.81"/>
        <lane id=":5280770480_0_1" index="1" disallow="pedestrian bicycle tram rail_urban rail rail_electric rail_fast ship" speed="19.44" length="8.38" shape="1059.64,346.78 1057.35,346.19 1056.01,345.01 1054.67,343.77 1052.40,342.99"/>
        <lane id=":5280770480_0_2" index="2" disallow="pedestrian bicycle tram rail_urban rail rail_electric rail_fast ship" speed="19.44" length="8.38" shape="1059.51,349.98 1057.15,349.38 1055.75,348.20 1054.35,346.95 1052.01,346.16"/>
        <lane id=":5280770480_0_3" index="3" disallow="pedestrian bicycle tram rail_urban rail rail_electric rail_fast ship" speed="19.44" length="8.38" shape="1059.51,349.98 1051.62,349.34"/>
        <lane id=":5280770480_0_4" index="4" disallow="pedestrian bicycle tram rail_urban rail rail_electric rail_fast ship" speed="19.44" length="8.38" shape="1059.51,349.98 1056.99,350.38 1055.36,351.38 1053.73,352.32 1051.23,352.51"/>
    </edge>
    <edge id=":5284718089_0" function="internal">
        <lane id=":5284718089_0_0" index="0" disallow="pedestrian bicycle tram rail_urban rail rail_electric rail_fast ship" speed="18.05" length="3.13" shape="1046.09,280.45 1045.68,283.55"/>
    </edge>
    <edge id=":5284718089_1" function="internal">
        <lane id=":5284718089_1_0" index="0" disallow="pedestrian bicycle tram rail_urban rail rail_electric rail_fast ship" speed="13.89" length="3.18" shape="1049.28,280.73 1048.99,283.90"/>
    </edge>
    <edge id=":5841391939_0" function="internal">
        <lane id=":5841391939_0_0" index="0" disallow="pedestrian bicycle tram rail_urban rail rail_electric rail_fast ship" speed="13.89" length="8.11" shape="792.98,370.66 795.34,371.18 796.89,371.89 798.43,372.57 800.81,372.99"/>
        <lane id=":5841391939_0_1" index="1" disallow="pedestrian bicycle tram rail_urban rail rail_electric rail_fast ship" speed="13.89" length="8.11" shape="793.35,367.48 795.67,368.00 797.18,368.71 798.70,369.38 801.03,369.80"/>
        <lane id=":5841391939_0_2" index="2" disallow="pedestrian bicycle tram rail_urban rail rail_electric rail_fast ship" speed="13.89" length="8.11" shape="793.35,367.48 795.69,367.50 797.30,367.11 798.91,366.69 801.26,366.61"/>
    </edge>
    <edge id=":5941686709_0" function="internal">