<?xml version="1.0" encoding="UTF-8"?>

<!-- generated on 2023-07-19 16:21:40 by Eclipse SUMO netconvert Version 1.17.0
<configuration xmlns:xsi="http://www.w3.org/2001/XMLSchema-instance" xsi:noNamespaceSchemaLocation="http://sumo.dlr.de/xsd/netconvertConfiguration.xsd">

    <input>
        <sumo-net-file value="osm.net.xml.gz"/>
    </input>

    <output>
        <output-file value="osm.net.xml"/>
        <output.street-names value="true"/>
    </output>

    <processing>
        <geometry.min-radius.fix.railways value="false"/>
        <geometry.max-grade.fix value="false"/>
        <offset.disable-normalization value="true"/>
        <lefthand value="1"/>
    </processing>

    <junctions>
        <no-turnarounds value="true"/>
        <junctions.corner-detail value="5"/>
        <junctions.limit-turn-speed value="5.50"/>
        <rectangular-lane-cut value="0"/>
    </junctions>

    <pedestrian>
        <walkingareas value="0"/>
    </pedestrian>

</configuration>
-->

<net version="1.16" junctionCornerDetail="5" lefthand="true" limitTurnSpeed="5.50" xmlns:xsi="http://www.w3.org/2001/XMLSchema-instance" xsi:noNamespaceSchemaLocation="http://sumo.dlr.de/xsd/net_file.xsd">

    <location netOffset="-367878.02,-147100.60" convBoundary="0.00,0.00,1087.28,690.90" origBoundary="103.812419,1.330577,103.822189,1.336829" projParameter="+proj=utm +zone=48 +ellps=WGS84 +datum=WGS84 +units=m +no_defs"/>

    <type id="highway.bridleway" priority="1" numLanes="1" speed="2.78" allow="pedestrian" oneway="1" width="2.00"/>
    <type id="highway.bus_guideway" priority="1" numLanes="1" speed="27.78" allow="bus" oneway="1"/>
    <type id="highway.cycleway" priority="1" numLanes="1" speed="5.56" allow="bicycle" oneway="0" width="1.00"/>
    <type id="highway.footway" priority="1" numLanes="1" speed="2.78" allow="pedestrian" oneway="1" width="2.00"/>
    <type id="highway.ford" priority="1" numLanes="1" speed="2.78" allow="army" oneway="0"/>
    <type id="highway.living_street" priority="2" numLanes="1" speed="2.78" disallow="tram rail_urban rail rail_electric rail_fast ship" oneway="0"/>
    <type id="highway.motorway" priority="14" numLanes="2" speed="39.44" allow="private emergency authority army vip passenger hov taxi bus coach delivery truck trailer motorcycle evehicle custom1 custom2" oneway="1"/>
    <type id="highway.motorway_link" priority="9" numLanes="1" speed="22.22" allow="private emergency authority army vip passenger hov taxi bus coach delivery truck trailer motorcycle evehicle custom1 custom2" oneway="1"/>
    <type id="highway.path" priority="1" numLanes="1" speed="5.56" allow="pedestrian bicycle" oneway="0" width="2.00"/>
    <type id="highway.pedestrian" priority="1" numLanes="1" speed="2.78" allow="pedestrian" oneway="1" width="2.00"/>
    <type id="highway.primary" priority="12" numLanes="2" speed="27.78" disallow="tram rail_urban rail rail_electric rail_fast ship" oneway="0"/>
    <type id="highway.primary_link" priority="7" numLanes="1" speed="22.22" disallow="tram rail_urban rail rail_electric rail_fast ship" oneway="0"/>
    <type id="highway.raceway" priority="15" numLanes="2" speed="83.33" allow="vip" oneway="0"/>
    <type id="highway.residential" priority="3" numLanes="1" speed="13.89" disallow="tram rail_urban rail rail_electric rail_fast ship" oneway="0"/>
    <type id="highway.secondary" priority="11" numLanes="1" speed="27.78" disallow="tram rail_urban rail rail_electric rail_fast ship" oneway="0"/>
    <type id="highway.secondary_link" priority="6" numLanes="1" speed="22.22" disallow="tram rail_urban rail rail_electric rail_fast ship" oneway="0"/>
    <type id="highway.service" priority="1" numLanes="1" speed="5.56" allow="pedestrian delivery bicycle" oneway="0"/>
    <type id="highway.stairs" priority="1" numLanes="1" speed="1.39" allow="pedestrian" oneway="1" width="2.00"/>
    <type id="highway.step" priority="1" numLanes="1" speed="1.39" allow="pedestrian" oneway="1" width="2.00"/>
    <type id="highway.steps" priority="1" numLanes="1" speed="1.39" allow="pedestrian" oneway="1" width="2.00"/>
    <type id="highway.tertiary" priority="10" numLanes="1" speed="22.22" disallow="tram rail_urban rail rail_electric rail_fast ship" oneway="0"/>
    <type id="highway.tertiary_link" priority="5" numLanes="1" speed="22.22" disallow="tram rail_urban rail rail_electric rail_fast ship" oneway="0"/>
    <type id="highway.track" priority="1" numLanes="1" speed="5.56" allow="pedestrian motorcycle moped bicycle" oneway="0"/>
    <type id="highway.trunk" priority="13" numLanes="2" speed="27.78" disallow="pedestrian bicycle tram rail_urban rail rail_electric rail_fast ship" oneway="0"/>
    <type id="highway.trunk_link" priority="8" numLanes="1" speed="22.22" disallow="pedestrian bicycle tram rail_urban rail rail_electric rail_fast ship" oneway="0"/>
    <type id="highway.unclassified" priority="4" numLanes="1" speed="13.89" disallow="tram rail_urban rail rail_electric rail_fast ship" oneway="0"/>
    <type id="highway.unsurfaced" priority="1" numLanes="1" speed="8.33" disallow="tram rail_urban rail rail_electric rail_fast ship" oneway="0"/>
    <type id="railway.highspeed" priority="21" numLanes="1" speed="69.44" allow="rail_fast" oneway="1"/>
    <type id="railway.light_rail" priority="19" numLanes="1" speed="27.78" allow="rail_urban" oneway="1"/>
    <type id="railway.preserved" priority="16" numLanes="1" speed="27.78" allow="rail" oneway="1"/>
    <type id="railway.rail" priority="20" numLanes="1" speed="44.44" allow="rail" oneway="1"/>
    <type id="railway.subway" priority="18" numLanes="1" speed="27.78" allow="rail_urban" oneway="1"/>
    <type id="railway.tram" priority="17" numLanes="1" speed="13.89" allow="tram" oneway="1"/>

    <edge id=":1057560070-AddedOffRampNode_0" function="internal">
        <lane id=":1057560070-AddedOffRampNode_0_0" index="0" disallow="pedestrian bicycle tram rail_urban rail rail_electric rail_fast ship" speed="19.44" length="10.24" shape="535.75,367.87 536.70,371.64 534.00,375.15 531.28,378.67 532.19,382.48"/>
        <lane id=":1057560070-AddedOffRampNode_0_1" index="1" disallow="pedestrian bicycle tram rail_urban rail rail_electric rail_fast ship" speed="19.44" length="10.24" shape="535.75,367.87 536.80,371.03 535.14,374.04 533.47,377.05 534.48,380.24"/>
        <lane id=":1057560070-AddedOffRampNode_0_2" index="2" disallow="pedestrian bicycle tram rail_urban rail rail_electric rail_fast ship" speed="19.44" length="10.24" shape="535.75,367.87 536.93,370.46 536.28,372.92 535.62,375.39 536.77,378.01"/>
        <lane id=":1057560070-AddedOffRampNode_0_3" index="3" disallow="pedestrian bicycle tram rail_urban rail rail_electric rail_fast ship" speed="19.44" length="10.24" shape="535.75,367.87 537.13,369.95 537.42,371.81 537.71,373.67 539.06,375.78"/>
        <lane id=":1057560070-AddedOffRampNode_0_4" index="4" disallow="pedestrian bicycle tram rail_urban rail rail_electric rail_fast ship" speed="19.44" length="10.24" shape="535.75,367.87 541.35,373.54"/>
        <lane id=":1057560070-AddedOffRampNode_0_5" index="5" disallow="pedestrian bicycle tram rail_urban rail rail_electric rail_fast ship" speed="19.44" length="10.24" shape="538.02,365.61 543.65,371.31"/>
        <lane id=":1057560070-AddedOffRampNode_0_6" index="6" disallow="pedestrian bicycle tram rail_urban rail rail_electric rail_fast ship" speed="19.44" length="10.24" shape="540.28,363.35 545.94,369.08"/>
        <lane id=":1057560070-AddedOffRampNode_0_7" index="7" disallow="pedestrian bicycle tram rail_urban rail rail_electric rail_fast ship" speed="19.44" length="10.24" shape="542.54,361.08 548.23,366.84"/>
    </edge>
    <edge id=":1374818500_0" function="internal">
        <lane id=":1374818500_0_0" index="0" allow="private emergency authority army vip passenger hov taxi bus coach delivery truck trailer motorcycle evehicle custom1 custom2" speed="15.28" length="6.78" shape="438.51,227.55 439.59,229.25 440.34,230.41 441.02,231.61 441.89,233.42"/>
    </edge>
    <edge id=":1374818500_1" function="internal">
        <lane id=":1374818500_1_0" index="0" disallow="pedestrian bicycle tram rail_urban rail rail_electric rail_fast ship" speed="19.44" length="5.72" shape="441.23,225.87 444.46,230.78"/>
        <lane id=":1374818500_1_1" index="1" disallow="pedestrian bicycle tram rail_urban rail rail_electric rail_fast ship" speed="19.44" length="5.72" shape="443.95,224.18 447.10,228.97"/>
        <lane id=":1374818500_1_2" index="2" disallow="pedestrian bicycle tram rail_urban rail rail_electric rail_fast ship" speed="19.44" length="5.72" shape="446.67,222.50 449.73,227.15"/>
    </edge>
    <edge id=":1374818542_0" function="internal">
        <lane id=":1374818542_0_0" index="0" allow="private emergency authority army vip passenger hov taxi bus coach delivery truck trailer motorcycle evehicle custom1 custom2" speed="16.66" length="18.57" shape="367.17,118.49 369.81,123.98 372.58,127.99 374.84,131.30 375.96,134.71"/>
    </edge>
    <edge id=":1374818542_1" function="internal">
        <lane id=":1374818542_1_0" index="0" disallow="pedestrian bicycle tram rail_urban rail rail_electric rail_fast ship" speed="19.44" length="17.52" shape="370.17,117.40 372.27,122.45 374.20,125.68 376.45,128.75 379.56,133.30"/>
        <lane id=":1374818542_1_1" index="1" disallow="pedestrian bicycle tram rail_urban rail rail_electric rail_fast ship" speed="19.44" length="17.52" shape="373.18,116.30 375.21,121.16 377.08,124.27 379.26,127.21 382.26,131.59"/>
        <lane id=":1374818542_1_2" index="2" disallow="pedestrian bicycle tram rail_urban rail rail_electric rail_fast ship" speed="19.44" length="17.52" shape="376.19,115.21 378.15,119.88 379.96,122.85 382.08,125.67 384.97,129.88"/>
        <lane id=":1374818542_1_3" index="3" disallow="pedestrian bicycle tram rail_urban rail rail_electric rail_fast ship" speed="19.44" length="17.52" shape="379.20,114.12 381.09,118.59 382.84,121.44 384.89,124.13 387.67,128.17"/>
    </edge>
    <edge id=":1374818545_0" function="internal">
        <lane id=":1374818545_0_0" index="0" allow="private emergency authority army vip passenger hov taxi bus coach delivery truck trailer motorcycle evehicle custom1 custom2" speed="13.89" length="20.84" shape="327.00,240.92 323.94,243.37 320.54,246.35 316.18,249.70 310.25,253.24"/>
    </edge>
    <edge id=":1374818545_1" function="internal">
        <lane id=":1374818545_1_0" index="0" allow="private emergency authority army vip passenger hov taxi bus coach delivery truck trailer motorcycle evehicle custom1 custom2" speed="13.89" length="21.45" shape="328.97,243.58 323.95,246.95 320.64,249.87 317.19,252.77 311.71,256.08"/>
        <lane id=":1374818545_1_1" index="1" allow="private emergency authority army vip passenger hov taxi bus coach delivery truck trailer motorcycle evehicle custom1 custom2" speed="13.89" length="21.45" shape="330.60,246.34 325.56,249.72 322.22,252.65 318.71,255.58 313.18,258.92"/>
    </edge>
    <edge id=":1374823624_0" function="internal">
        <lane id=":1374823624_0_0" index="0" allow="private emergency authority army vip passenger hov taxi bus coach delivery truck trailer motorcycle evehicle custom1 custom2" speed="13.89" length="7.56" shape="293.90,345.63 296.01,345.54 297.45,345.89 298.91,346.33 301.04,346.47"/>
        <lane id=":1374823624_0_1" index="1" allow="private emergency authority army vip passenger hov taxi bus coach delivery truck trailer motorcycle evehicle custom1 custom2" speed="13.89" length="7.56" shape="293.37,342.47 295.59,342.36 297.11,342.71 298.65,343.14 300.89,343.28"/>
        <lane id=":1374823624_0_2" index="2" allow="private emergency authority army vip passenger hov taxi bus coach delivery truck trailer motorcycle evehicle custom1 custom2" speed="13.89" length="7.56" shape="293.37,342.47 295.59,341.86 297.04,341.11 298.49,340.44 300.74,340.08"/>
    </edge>
    <edge id=":1374823665_0" function="internal">
        <lane id=":1374823665_0_0" index="0" allow="private emergency authority army vip passenger hov taxi bus coach delivery truck trailer motorcycle evehicle custom1 custom2" speed="16.66" length="9.17" shape="624.93,380.57 622.57,379.21 621.00,378.21 619.55,377.03 617.56,375.18"/>
    </edge>
    <edge id=":1374823665_1" function="internal">
        <lane id=":1374823665_1_0" index="0" disallow="pedestrian bicycle tram rail_urban rail rail_electric rail_fast ship" speed="19.44" length="7.96" shape="623.34,383.35 621.30,382.23 619.87,381.51 618.49,380.71 616.59,379.39"/>
        <lane id=":1374823665_1_1" index="1" disallow="pedestrian bicycle tram rail_urban rail rail_electric rail_fast ship" speed="19.44" length="7.96" shape="621.74,386.12 619.67,384.99 618.22,384.26 616.82,383.45 614.88,382.11"/>
        <lane id=":1374823665_1_2" index="2" disallow="pedestrian bicycle tram rail_urban rail rail_electric rail_fast ship" speed="19.44" length="7.96" shape="620.15,388.90 618.04,387.75 616.57,387.01 615.14,386.19 613.17,384.82"/>
    </edge>
    <edge id=":1374823667_0" function="internal">
        <lane id=":1374823667_0_0" index="0" allow="private emergency authority army vip passenger hov taxi bus coach delivery truck trailer motorcycle evehicle custom1 custom2" speed="13.89" length="6.83" shape="337.93,350.15 339.81,350.57 341.07,350.98 342.29,351.52 344.07,352.28"/>
        <lane id=":1374823667_0_1" index="1" allow="private emergency authority army vip passenger hov taxi bus coach delivery truck trailer motorcycle evehicle custom1 custom2" speed="13.89" length="6.83" shape="338.53,347.00 340.59,347.46 341.97,347.91 343.31,348.48 345.27,349.31"/>
    </edge>
    <edge id=":1374823667_2" function="internal">
        <lane id=":1374823667_2_0" index="0" allow="private emergency authority army vip passenger hov taxi bus coach delivery truck trailer motorcycle evehicle custom1 custom2" speed="13.89" length="7.07" shape="339.13,343.86 345.94,345.73"/>
    </edge>
    <edge id=":175288440_0" function="internal">
        <lane id=":175288440_0_0" index="0" allow="private emergency authority army vip passenger hov taxi bus coach delivery truck trailer motorcycle evehicle custom1 custom2" speed="16.66" length="29.68" shape="437.15,171.43 432.12,163.45 429.03,157.00 426.73,151.14 424.04,144.90"/>
        <lane id=":175288440_0_1" index="1" allow="private emergency authority army vip passenger hov taxi bus coach delivery truck trailer motorcycle evehicle custom1 custom2" speed="16.66" length="30.47" shape="434.54,173.27 429.35,165.05 426.14,158.39 423.77,152.36 421.05,146.06"/>
    </edge>
    <edge id=":175288440_2" function="internal">
        <lane id=":175288440_2_0" index="0" disallow="pedestrian bicycle tram rail_urban rail rail_electric rail_fast ship" speed="19.44" length="31.04" shape="431.93,175.12 427.05,167.34 424.44,161.52 422.09,155.63 418.02,147.61"/>
        <lane id=":175288440_2_1" index="1" disallow="pedestrian bicycle tram rail_urban rail rail_electric rail_fast ship" speed="19.44" length="31.04" shape="429.32,176.97 424.41,169.15 421.77,163.29 419.40,157.37 415.32,149.34"/>
        <lane id=":175288440_2_2" index="2" disallow="pedestrian bicycle tram rail_urban rail rail_electric rail_fast ship" speed="19.44" length="31.04" shape="426.70,178.82 421.77,170.95 419.10,165.06 416.72,159.11 412.63,151.08"/>
    </edge>
    <edge id=":175288634_0" function="internal">
        <lane id=":175288634_0_0" index="0" allow="private emergency authority army vip passenger hov taxi bus coach delivery truck trailer motorcycle evehicle custom1 custom2" speed="16.66" length="19.76" shape="376.76,54.02 372.39,50.52 369.33,48.14 366.68,45.41 363.52,40.87"/>
        <lane id=":175288634_0_1" index="1" allow="private emergency authority army vip passenger hov taxi bus coach delivery truck trailer motorcycle evehicle custom1 custom2" speed="16.66" length="19.76" shape="374.59,56.38 370.04,52.71 366.86,50.20 364.10,47.32 360.81,42.56"/>
        <lane id=":175288634_0_2" index="2" allow="private emergency authority army vip passenger hov taxi bus coach delivery truck trailer motorcycle evehicle custom1 custom2" speed="16.66" length="19.76" shape="374.59,56.38 369.57,52.97 365.53,51.14 361.89,48.90 358.09,44.26"/>
    </edge>
    <edge id=":175288634_3" function="internal">
        <lane id=":175288634_3_0" index="0" disallow="pedestrian bicycle tram rail_urban rail rail_electric rail_fast ship" speed="19.44" length="19.57" shape="370.91,59.55 368.25,54.32 366.21,50.86 363.99,47.50 360.81,42.56"/>
        <lane id=":175288634_3_1" index="1" disallow="pedestrian bicycle tram rail_urban rail rail_electric rail_fast ship" speed="19.44" length="19.57" shape="368.09,61.06 365.46,55.89 363.44,52.47 361.24,49.14 358.09,44.26"/>
        <lane id=":175288634_3_2" index="2" disallow="pedestrian bicycle tram rail_urban rail rail_electric rail_fast ship" speed="19.44" length="19.57" shape="365.27,62.58 362.67,57.46 360.67,54.08 358.50,50.79 355.38,45.96"/>
    </edge>
    <edge id=":2391203254_0" function="internal">
        <lane id=":2391203254_0_0" index="0" disallow="pedestrian bicycle tram rail_urban rail rail_electric rail_fast ship" speed="8.19" length="6.79" shape="594.79,451.31 596.45,452.87 597.94,453.96 599.28,454.59 600.45,454.76"/>
        <lane id=":2391203254_0_1" index="1" disallow="pedestrian bicycle tram rail_urban rail rail_electric rail_fast ship" speed="6.50" length="4.11" shape="597.09,449.08 597.74,449.78 598.57,450.62 599.45,451.30 600.27,451.57"/>
        <lane id=":2391203254_0_2" index="2" disallow="pedestrian bicycle tram rail_urban rail rail_electric rail_fast ship" speed="4.63" length="1.85" shape="599.39,446.85 599.63,447.35 599.64,447.86 599.71,448.24 600.09,448.37"/>
        <lane id=":2391203254_0_3" index="3" disallow="pedestrian bicycle tram rail_urban rail rail_electric rail_fast ship" speed="4.90" length="2.12" shape="601.69,444.63 601.55,445.00 600.69,445.17 599.88,445.21 599.91,445.18"/>
    </edge>
    <edge id=":2391203254_4" function="internal">
        <lane id=":2391203254_4_0" index="0" disallow="pedestrian bicycle tram rail_urban rail rail_electric rail_fast ship" speed="17.24" length="5.57" shape="603.99,442.40 605.55,443.98 606.74,444.96 608.08,445.70 610.11,446.59"/>
        <lane id=":2391203254_4_1" index="1" disallow="pedestrian bicycle tram rail_urban rail rail_electric rail_fast ship" speed="15.70" length="5.57" shape="606.28,440.17 607.58,441.48 608.56,442.29 609.67,442.91 611.35,443.64"/>
        <lane id=":2391203254_4_2" index="2" disallow="pedestrian bicycle tram rail_urban rail rail_electric rail_fast ship" speed="14.00" length="5.57" shape="608.58,437.95 609.61,438.98 610.38,439.62 611.26,440.11 612.59,440.69"/>
        <lane id=":2391203254_4_3" index="3" disallow="pedestrian bicycle tram rail_urban rail rail_electric rail_fast ship" speed="12.06" length="5.57" shape="610.88,435.72 611.64,436.48 612.21,436.95 612.85,437.31 613.84,437.74"/>
    </edge>
    <edge id=":241595350_0" function="internal">
        <lane id=":241595350_0_0" index="0" allow="private emergency authority army vip passenger hov taxi bus coach delivery truck trailer motorcycle evehicle custom1 custom2" speed="13.89" length="16.27" shape="577.91,171.39 580.69,168.56 583.61,165.54 586.67,162.70 589.85,160.41"/>
    </edge>
    <edge id=":241595350_1" function="internal">
        <lane id=":241595350_1_0" index="0" allow="private emergency authority army vip passenger hov taxi bus coach delivery truck trailer motorcycle evehicle custom1 custom2" speed="12.50" length="16.27" shape="575.78,168.56 589.85,160.41"/>
    </edge>
    <edge id=":241595360_0" function="internal">
        <lane id=":241595360_0_0" index="0" allow="private emergency authority army vip passenger hov taxi bus coach delivery truck trailer motorcycle evehicle custom1 custom2" speed="13.89" length="8.92" shape="488.42,70.30 485.87,69.21 484.31,67.83 482.73,66.66 480.12,66.18"/>
        <lane id=":241595360_0_1" index="1" allow="private emergency authority army vip passenger hov taxi bus coach delivery truck trailer motorcycle evehicle custom1 custom2" speed="13.89" length="8.92" shape="488.42,70.30 486.00,69.75 484.32,69.47 482.62,69.38 480.14,69.38"/>
    </edge>
    <edge id=":6185002338_0" function="internal">
        <lane id=":6185002338_0_0" index="0" disallow="pedestrian bicycle tram rail_urban rail rail_electric rail_fast ship" speed="19.44" length="104.83" shape="474.65,275.42 485.25,292.26 501.57,318.20 518.78,344.64 532.04,363.01"/>
        <lane id=":6185002338_0_1" index="1" disallow="pedestrian bicycle tram rail_urban rail rail_electric rail_fast ship" speed="19.44" length="104.83" shape="474.65,275.42 485.67,291.98 502.90,317.29 521.02,343.12 534.70,361.20"/>
        <lane id=":6185002338_0_2" index="2" disallow="pedestrian bicycle tram rail_urban rail rail_electric rail_fast ship" speed="19.44" length="104.83" shape="474.65,275.42 486.08,291.69 504.23,316.39 523.27,341.59 537.36,359.39"/>
        <lane id=":6185002338_0_3" index="3" disallow="pedestrian bicycle tram rail_urban rail rail_electric rail_fast ship" speed="19.44" length="104.83" shape="474.65,275.42 486.50,291.41 505.56,315.48 525.51,340.06 540.02,357.58"/>
    </edge>
    <edge id=":6185002338_4" function="internal">
        <lane id=":6185002338_4_0" index="0" disallow="pedestrian bicycle tram rail_urban rail rail_electric rail_fast ship" speed="19.44" length="112.56" shape="474.65,275.42 487.51,292.23 508.93,317.97 531.56,343.93 548.02,361.36"/>
        <lane id=":6185002338_4_1" index="1" disallow="pedestrian bicycle tram rail_urban rail rail_electric rail_fast ship" speed="19.44" length="112.56" shape="477.33,273.67 490.16,290.43 511.50,316.05 534.04,341.89 550.47,359.27"/>
        <lane id=":6185002338_4_2" index="2" disallow="pedestrian bicycle tram rail_urban rail rail_electric rail_fast ship" speed="19.44" length="112.56" shape="480.01,271.93 492.81,288.63 514.06,314.13 536.52,339.85 552.92,357.18"/>
        <lane id=":6185002338_4_3" index="3" disallow="pedestrian bicycle tram rail_urban rail rail_electric rail_fast ship" speed="19.44" length="112.56" shape="480.01,271.93 493.19,288.30 515.29,313.09 538.59,338.09 555.37,355.08"/>
    </edge>
    <edge id=":6185002339_0" function="internal">
        <lane id=":6185002339_0_0" index="0" allow="private emergency authority army vip passenger hov taxi bus coach delivery truck trailer motorcycle evehicle custom1 custom2" speed="13.18" length="12.71" shape="524.68,363.07 527.86,363.47 530.33,363.99 532.64,365.13 535.31,367.43"/>
        <lane id=":6185002339_0_1" index="1" allow="private emergency authority army vip passenger hov taxi bus coach delivery truck trailer motorcycle evehicle custom1 custom2" speed="14.11" length="12.71" shape="524.68,363.07 528.14,363.04 531.26,362.65 534.31,362.99 537.58,365.17"/>
    </edge>
    <edge id=":6185002339_2" function="internal">
        <lane id=":6185002339_2_0" index="0" disallow="pedestrian bicycle tram rail_urban rail rail_electric rail_fast ship" speed="19.44" length="4.41" shape="532.17,363.16 535.31,367.43"/>
        <lane id=":6185002339_2_1" index="1" disallow="pedestrian bicycle tram rail_urban rail rail_electric rail_fast ship" speed="19.44" length="4.41" shape="534.83,361.35 537.58,365.17"/>
        <lane id=":6185002339_2_2" index="2" disallow="pedestrian bicycle tram rail_urban rail rail_electric rail_fast ship" speed="19.44" length="4.41" shape="537.49,359.54 538.21,360.52 538.62,361.27 539.05,361.99 539.84,362.91"/>
        <lane id=":6185002339_2_3" index="3" disallow="pedestrian bicycle tram rail_urban rail rail_electric rail_fast ship" speed="19.44" length="4.41" shape="540.15,357.73 540.76,358.58 541.09,359.22 541.43,359.85 542.10,360.64"/>
    </edge>
    <edge id=":6185002344_0" function="internal">
        <lane id=":6185002344_0_0" index="0" disallow="pedestrian bicycle tram rail_urban rail rail_electric rail_fast ship" speed="19.44" length="8.54" shape="598.94,366.32 597.33,364.51 596.82,362.75 596.33,360.96 594.78,359.07"/>
        <lane id=":6185002344_0_1" index="1" disallow="pedestrian bicycle tram rail_urban rail rail_electric rail_fast ship" speed="19.44" length="8.54" shape="598.94,366.32 592.77,361.56"/>
        <lane id=":6185002344_0_2" index="2" disallow="pedestrian bicycle tram rail_urban rail rail_electric rail_fast ship" speed="19.44" length="8.54" shape="598.94,366.32 596.69,365.28 594.81,365.24 592.96,365.18 590.77,364.06"/>
        <lane id=":6185002344_0_3" index="3" disallow="pedestrian bicycle tram rail_urban rail rail_electric rail_fast ship" speed="19.44" length="8.54" shape="597.03,368.90 594.75,367.83 592.86,367.77 590.98,367.69 588.76,366.55"/>
        <lane id=":6185002344_0_4" index="4" disallow="pedestrian bicycle tram rail_urban rail rail_electric rail_fast ship" speed="19.44" length="8.54" shape="595.13,371.47 592.82,370.38 590.90,370.31 589.00,370.21 586.75,369.04"/>
    </edge>
    <edge id=":6185050222_0" function="internal">
        <lane id=":6185050222_0_0" index="0" allow="private emergency authority army vip passenger hov taxi bus coach delivery truck trailer motorcycle evehicle custom1 custom2" speed="18.05" length="7.09" shape="553.68,382.36 555.55,383.18 556.65,384.14 557.70,385.19 559.47,386.31"/>
    </edge>
    <edge id=":684713875#1-AddedOnRampNode_0" function="internal">
        <lane id=":684713875#1-AddedOnRampNode_0_0" index="0" disallow="pedestrian bicycle tram rail_urban rail rail_electric rail_fast ship" speed="19.44" length="8.00" shape="1044.52,666.98 1051.08,671.56"/>
        <lane id=":684713875#1-AddedOnRampNode_0_1" index="1" disallow="pedestrian bicycle tram rail_urban rail rail_electric rail_fast ship" speed="19.44" length="8.00" shape="1046.35,664.35 1052.91,668.93"/>
        <lane id=":684713875#1-AddedOnRampNode_0_2" index="2" disallow="pedestrian bicycle tram rail_urban rail rail_electric rail_fast ship" speed="19.44" length="8.00" shape="1048.17,661.73 1054.74,666.30"/>
        <lane id=":684713875#1-AddedOnRampNode_0_3" index="3" disallow="pedestrian bicycle tram rail_urban rail rail_electric rail_fast ship" speed="19.44" length="8.00" shape="1050.00,659.10 1056.57,663.68"/>
    </edge>
    <edge id=":6905862640_0" function="internal">
        <lane id=":6905862640_0_0" index="0" disallow="pedestrian bicycle tram rail_urban rail rail_electric rail_fast ship" speed="19.44" length="7.96" shape="359.06,92.18 359.72,94.31 359.78,95.88 359.80,97.47 360.33,99.65"/>
        <lane id=":6905862640_0_1" index="1" disallow="pedestrian bicycle tram rail_urban rail rail_electric rail_fast ship" speed="19.44" length="7.96" shape="359.06,92.18 360.20,94.15 361.29,95.34 362.34,96.53 363.34,98.56"/>
        <lane id=":6905862640_0_2" index="2" disallow="pedestrian bicycle tram rail_urban rail rail_electric rail_fast ship" speed="19.44" length="7.96" shape="361.99,90.90 363.15,92.92 364.26,94.14 365.32,95.38 366.35,97.47"/>
        <lane id=":6905862640_0_3" index="3" disallow="pedestrian bicycle tram rail_urban rail rail_electric rail_fast ship" speed="19.44" length="7.96" shape="364.92,89.61 366.10,91.69 367.23,92.95 368.31,94.23 369.35,96.37"/>
        <lane id=":6905862640_0_4" index="4" disallow="pedestrian bicycle tram rail_urban rail rail_electric rail_fast ship" speed="19.44" length="7.96" shape="367.85,88.32 369.06,90.46 370.20,91.76 371.29,93.08 372.36,95.28"/>
    </edge>
    <edge id=":6909655411_0" function="internal">
        <lane id=":6909655411_0_0" index="0" allow="private emergency authority army vip passenger hov taxi bus coach delivery truck trailer motorcycle evehicle custom1 custom2" speed="13.89" length="7.76" shape="262.31,281.58 260.24,282.36 258.69,282.50 257.11,282.58 254.94,283.16"/>
        <lane id=":6909655411_0_1" index="1" allow="private emergency authority army vip passenger hov taxi bus coach delivery truck trailer motorcycle evehicle custom1 custom2" speed="13.89" length="7.76" shape="263.78,284.42 261.62,285.25 260.01,285.42 258.36,285.52 256.11,286.14"/>
    </edge>
    <edge id=":9307597935_0" function="internal">
        <lane id=":9307597935_0_0" index="0" allow="private emergency authority army vip passenger hov taxi bus coach delivery truck trailer motorcycle evehicle custom1 custom2" speed="20.83" length="2.99" shape="962.67,613.93 965.13,615.63"/>
    </edge>
    <edge id=":9307597935_1" function="internal">
        <lane id=":9307597935_1_0" index="0" disallow="pedestrian bicycle tram rail_urban rail rail_electric rail_fast ship" speed="19.44" length="3.00" shape="964.49,611.30 966.95,613.00"/>
        <lane id=":9307597935_1_1" index="1" disallow="pedestrian bicycle tram rail_urban rail rail_electric rail_fast ship" speed="19.44" length="3.00" shape="966.31,608.67 968.78,610.38"/>
        <lane id=":9307597935_1_2" index="2" disallow="pedestrian bicycle tram rail_urban rail rail_electric rail_fast ship" speed="19.44" length="3.00" shape="968.14,606.04 970.61,607.75"/>
        <lane id=":9307597935_1_3" index="3" disallow="pedestrian bicycle tram rail_urban rail rail_electric rail_fast ship" speed="19.44" length="3.00" shape="969.96,603.41 972.44,605.12"/>
    </edge>

    <edge id="1057560070" from="6185002339" to="1057560070-AddedOffRampNode" priority="8" type="highway.trunk_link" spreadType="center">
        <lane id="1057560070_0" index="0" disallow="pedestrian bicycle tram rail_urban rail rail_electric rail_fast ship" speed="19.44" length="0.62" shape="535.31,367.43 535.75,367.87">
            <param key="origId" value="1057560070 655169343 528461175"/>
        </lane>