<?xml version="1.0" encoding="UTF-8"?>

<!-- generated on 2023-07-19 16:07:04 by Eclipse SUMO netconvert Version 1.17.0
<configuration xmlns:xsi="http://www.w3.org/2001/XMLSchema-instance" xsi:noNamespaceSchemaLocation="http://sumo.dlr.de/xsd/netconvertConfiguration.xsd">

    <input>
        <sumo-net-file value="osm.net.xml.gz"/>
    </input>

    <output>
        <output-file value="osm.net.xml"/>
        <output.street-names value="true"/>
    </output>

    <processing>
        <geometry.min-radius.fix.railways value="false"/>
        <geometry.max-grade.fix value="false"/>
        <offset.disable-normalization value="true"/>
        <lefthand value="1"/>
    </processing>

    <junctions>
        <no-turnarounds value="true"/>
        <junctions.corner-detail value="5"/>
        <junctions.limit-turn-speed value="5.50"/>
        <rectangular-lane-cut value="0"/>
    </junctions>

    <pedestrian>
        <walkingareas value="0"/>
    </pedestrian>

</configuration>
-->

<net version="1.16" junctionCornerDetail="5" lefthand="true" limitTurnSpeed="5.50" xmlns:xsi="http://www.w3.org/2001/XMLSchema-instance" xsi:noNamespaceSchemaLocation="http://sumo.dlr.de/xsd/net_file.xsd">

    <location netOffset="-362917.81,-148876.74" convBoundary="0.00,0.00,466.20,485.30" origBoundary="103.767834,1.346621,103.772024,1.351009" projParameter="+proj=utm +zone=48 +ellps=WGS84 +datum=WGS84 +units=m +no_defs"/>

    <type id="highway.bridleway" priority="1" numLanes="1" speed="2.78" allow="pedestrian" oneway="1" width="2.00"/>
    <type id="highway.bus_guideway" priority="1" numLanes="1" speed="27.78" allow="bus" oneway="1"/>
    <type id="highway.cycleway" priority="1" numLanes="1" speed="5.56" allow="bicycle" oneway="0" width="1.00"/>
    <type id="highway.footway" priority="1" numLanes="1" speed="2.78" allow="pedestrian" oneway="1" width="2.00"/>
    <type id="highway.ford" priority="1" numLanes="1" speed="2.78" allow="army" oneway="0"/>
    <type id="highway.living_street" priority="2" numLanes="1" speed="2.78" disallow="tram rail_urban rail rail_electric rail_fast ship" oneway="0"/>
    <type id="highway.motorway" priority="14" numLanes="2" speed="39.44" allow="private emergency authority army vip passenger hov taxi bus coach delivery truck trailer motorcycle evehicle custom1 custom2" oneway="1"/>
    <type id="highway.motorway_link" priority="9" numLanes="1" speed="22.22" allow="private emergency authority army vip passenger hov taxi bus coach delivery truck trailer motorcycle evehicle custom1 custom2" oneway="1"/>
    <type id="highway.path" priority="1" numLanes="1" speed="5.56" allow="pedestrian bicycle" oneway="0" width="2.00"/>
    <type id="highway.pedestrian" priority="1" numLanes="1" speed="2.78" allow="pedestrian" oneway="1" width="2.00"/>
    <type id="highway.primary" priority="12" numLanes="2" speed="27.78" disallow="tram rail_urban rail rail_electric rail_fast ship" oneway="0"/>
    <type id="highway.primary_link" priority="7" numLanes="1" speed="22.22" disallow="tram rail_urban rail rail_electric rail_fast ship" oneway="0"/>
    <type id="highway.raceway" priority="15" numLanes="2" speed="83.33" allow="vip" oneway="0"/>
    <type id="highway.residential" priority="3" numLanes="1" speed="13.89" disallow="tram rail_urban rail rail_electric rail_fast ship" oneway="0"/>
    <type id="highway.secondary" priority="11" numLanes="1" speed="27.78" disallow="tram rail_urban rail rail_electric rail_fast ship" oneway="0"/>
    <type id="highway.secondary_link" priority="6" numLanes="1" speed="22.22" disallow="tram rail_urban rail rail_electric rail_fast ship" oneway="0"/>
    <type id="highway.service" priority="1" numLanes="1" speed="5.56" allow="pedestrian delivery bicycle" oneway="0"/>
    <type id="highway.stairs" priority="1" numLanes="1" speed="1.39" allow="pedestrian" oneway="1" width="2.00"/>
    <type id="highway.step" priority="1" numLanes="1" speed="1.39" allow="pedestrian" oneway="1" width="2.00"/>
    <type id="highway.steps" priority="1" numLanes="1" speed="1.39" allow="pedestrian" oneway="1" width="2.00"/>
    <type id="highway.tertiary" priority="10" numLanes="1" speed="22.22" disallow="tram rail_urban rail rail_electric rail_fast ship" oneway="0"/>
    <type id="highway.tertiary_link" priority="5" numLanes="1" speed="22.22" disallow="tram rail_urban rail rail_electric rail_fast ship" oneway="0"/>
    <type id="highway.track" priority="1" numLanes="1" speed="5.56" allow="pedestrian motorcycle moped bicycle" oneway="0"/>
    <type id="highway.trunk" priority="13" numLanes="2" speed="27.78" disallow="pedestrian bicycle tram rail_urban rail rail_electric rail_fast ship" oneway="0"/>
    <type id="highway.trunk_link" priority="8" numLanes="1" speed="22.22" disallow="pedestrian bicycle tram rail_urban rail rail_electric rail_fast ship" oneway="0"/>
    <type id="highway.unclassified" priority="4" numLanes="1" speed="13.89" disallow="tram rail_urban rail rail_electric rail_fast ship" oneway="0"/>
    <type id="highway.unsurfaced" priority="1" numLanes="1" speed="8.33" disallow="tram rail_urban rail rail_electric rail_fast ship" oneway="0"/>
    <type id="railway.highspeed" priority="21" numLanes="1" speed="69.44" allow="rail_fast" oneway="1"/>
    <type id="railway.light_rail" priority="19" numLanes="1" speed="27.78" allow="rail_urban" oneway="1"/>
    <type id="railway.preserved" priority="16" numLanes="1" speed="27.78" allow="rail" oneway="1"/>
    <type id="railway.rail" priority="20" numLanes="1" speed="44.44" allow="rail" oneway="1"/>
    <type id="railway.subway" priority="18" numLanes="1" speed="27.78" allow="rail_urban" oneway="1"/>
    <type id="railway.tram" priority="17" numLanes="1" speed="13.89" allow="tram" oneway="1"/>

    <edge id=":1361025810_0" function="internal">
        <lane id=":1361025810_0_0" index="0" disallow="pedestrian bicycle tram rail_urban rail rail_electric rail_fast ship" speed="19.44" length="8.65" shape="345.22,123.65 343.37,125.38 341.57,126.01 339.78,126.65 337.95,128.40"/>
        <lane id=":1361025810_0_1" index="1" disallow="pedestrian bicycle tram rail_urban rail rail_electric rail_fast ship" speed="19.44" length="8.65" shape="347.82,125.51 345.98,127.23 344.18,127.86 342.40,128.49 340.57,130.23"/>
        <lane id=":1361025810_0_2" index="2" disallow="pedestrian bicycle tram rail_urban rail rail_electric rail_fast ship" speed="19.44" length="8.65" shape="350.43,127.37 348.59,129.08 346.80,129.70 345.01,130.33 343.20,132.06"/>
        <lane id=":1361025810_0_3" index="3" disallow="pedestrian bicycle tram rail_urban rail rail_electric rail_fast ship" speed="19.44" length="8.65" shape="353.03,129.23 351.20,130.94 349.41,131.55 347.63,132.17 345.82,133.89"/>
        <lane id=":1361025810_0_4" index="4" disallow="pedestrian bicycle tram rail_urban rail rail_electric rail_fast ship" speed="19.44" length="8.65" shape="353.03,129.23 348.45,135.72"/>
    </edge>
    <edge id=":1361025810_5" function="internal">
        <lane id=":1361025810_5_0" index="0" allow="bus bicycle" speed="19.44" length="7.91" shape="351.07,137.55 355.63,131.09"/>
    </edge>
    <edge id=":1849631588_0" function="internal">
        <lane id=":1849631588_0_0" index="0" allow="bus bicycle" speed="19.44" length="7.96" shape="260.24,389.42 259.22,397.32"/>
    </edge>
    <edge id=":1849631588_1" function="internal">
        <lane id=":1849631588_1_0" index="0" disallow="bicycle tram rail_urban rail rail_electric rail_fast ship" speed="19.44" length="9.88" shape="268.74,398.57 270.09,396.02 272.44,395.00 274.79,393.97 276.12,391.42"/>
        <lane id=":1849631588_1_1" index="1" disallow="bicycle tram rail_urban rail rail_electric rail_fast ship" speed="19.44" length="9.88" shape="265.57,398.15 266.91,395.61 269.27,394.59 271.61,393.57 272.94,391.02"/>
        <lane id=":1849631588_1_2" index="2" disallow="bicycle tram rail_urban rail rail_electric rail_fast ship" speed="19.44" length="9.88" shape="262.40,397.74 263.74,395.20 266.09,394.18 268.44,393.16 269.77,390.62"/>
        <lane id=":1849631588_1_3" index="3" disallow="bicycle tram rail_urban rail rail_electric rail_fast ship" speed="19.44" length="9.88" shape="262.40,397.74 263.21,395.36 264.50,393.98 265.79,392.60 266.59,390.22"/>
        <lane id=":1849631588_1_4" index="4" disallow="bicycle tram rail_urban rail rail_electric rail_fast ship" speed="19.44" length="9.88" shape="262.40,397.74 263.42,389.82"/>
    </edge>
    <edge id=":2913714951_0" function="internal">
        <lane id=":2913714951_0_0" index="0" disallow="bicycle tram rail_urban rail rail_electric rail_fast ship" speed="19.44" length="39.37" shape="251.94,269.07 249.46,279.87 248.01,290.33 247.24,299.95 246.83,308.26"/>
        <lane id=":2913714951_0_1" index="1" disallow="bicycle tram rail_urban rail rail_electric rail_fast ship" speed="19.44" length="39.37" shape="255.09,269.71 252.62,280.44 251.18,290.72 250.43,300.18 250.02,308.41"/>
    </edge>
    <edge id=":2913714951_2" function="internal">
        <lane id=":2913714951_2_0" index="0" allow="bus" speed="3.65" length="1.45" shape="258.23,270.35 258.78,271.69"/>
    </edge>
    <edge id=":2913714951_7" function="internal">
        <lane id=":2913714951_7_0" index="0" allow="bus" speed="3.65" length="3.24" shape="258.78,271.69 259.48,272.24 260.35,272.01 261.38,270.99"/>
    </edge>
    <edge id=":2913714951_3" function="internal">
        <lane id=":2913714951_3_0" index="0" allow="bus bicycle" speed="19.44" length="38.46" shape="253.22,308.56 254.40,301.26 256.87,289.70 259.55,278.19 261.38,270.99"/>
    </edge>
    <edge id=":2913714951_4" function="internal">
        <lane id=":2913714951_4_0" index="0" allow="bus" speed="3.65" length="1.44" shape="253.22,308.56 252.48,307.32"/>
    </edge>
    <edge id=":2913714951_8" function="internal">
        <lane id=":2913714951_8_0" index="0" allow="bus" speed="3.65" length="3.23" shape="252.48,307.32 251.70,306.88 250.88,307.25 250.02,308.41"/>
    </edge>
    <edge id=":2913714951_5" function="internal">
        <lane id=":2913714951_5_0" index="0" disallow="pedestrian bicycle tram rail_urban rail rail_electric rail_fast ship" speed="16.66" length="39.26" shape="246.06,269.10 247.14,275.73 247.42,286.63 247.20,298.56 246.83,308.26"/>
    </edge>
    <edge id=":2913714951_6" function="internal">
        <lane id=":2913714951_6_0" index="0" allow="bus" speed="7.52" length="20.51" shape="246.06,269.10 249.66,273.83 254.20,276.05 258.50,275.27 261.38,270.99"/>
    </edge>
    <edge id=":4604275702_0" function="internal">
        <lane id=":4604275702_0_0" index="0" disallow="pedestrian bicycle tram rail_urban rail rail_electric rail_fast ship" speed="16.66" length="33.47" shape="295.21,189.72 289.28,198.89 284.75,206.15 280.30,211.64 274.56,215.51"/>
    </edge>
    <edge id=":4604275702_1" function="internal">
        <lane id=":4604275702_1_0" index="0" disallow="pedestrian bicycle tram rail_urban rail rail_electric rail_fast ship" speed="19.44" length="8.67" shape="295.21,189.72 294.25,191.97 294.29,193.83 294.32,195.67 293.32,197.90"/>
        <lane id=":4604275702_1_1" index="1" disallow="pedestrian bicycle tram rail_urban rail rail_electric rail_fast ship" speed="19.44" length="8.67" shape="297.84,191.55 296.86,193.82 296.90,195.68 296.92,197.54 295.91,199.78"/>
        <lane id=":4604275702_1_2" index="2" disallow="pedestrian bicycle tram rail_urban rail rail_electric rail_fast ship" speed="19.44" length="8.67" shape="300.46,193.38 299.48,195.66 299.51,197.54 299.52,199.40 298.50,201.66"/>
        <lane id=":4604275702_1_3" index="3" disallow="pedestrian bicycle tram rail_urban rail rail_electric rail_fast ship" speed="19.44" length="8.67" shape="303.09,195.21 302.10,197.50 302.11,199.39 302.12,201.27 301.09,203.54"/>
    </edge>
    <edge id=":4604275702_5" function="internal">
        <lane id=":4604275702_5_0" index="0" allow="bus" speed="3.65" length="1.44" shape="305.71,197.04 305.68,198.48"/>
    </edge>
    <edge id=":4604275702_9" function="internal">
        <lane id=":4604275702_9_0" index="0" allow="bus" speed="3.65" length="3.23" shape="305.68,198.48 306.11,199.27 306.99,199.40 308.34,198.87"/>
    </edge>
    <edge id=":4604275702_6" function="internal">
        <lane id=":4604275702_6_0" index="0" allow="bus bicycle" speed="19.44" length="8.03" shape="303.69,205.41 308.34,198.87"/>
    </edge>
    <edge id=":4604275702_7" function="internal">
        <lane id=":4604275702_7_0" index="0" allow="bus" speed="8.67" length="30.44" shape="303.69,205.41 299.75,207.03 290.46,211.41 280.89,216.01 276.12,218.32"/>
    </edge>
    <edge id=":4604275702_8" function="internal">
        <lane id=":4604275702_8_0" index="0" allow="bus" speed="3.65" length="1.44" shape="303.69,205.41 303.74,203.97"/>
    </edge>
    <edge id=":4604275702_10" function="internal">
        <lane id=":4604275702_10_0" index="0" allow="bus" speed="3.65" length="3.23" shape="303.74,203.97 303.33,203.18 302.45,203.03 301.09,203.54"/>
    </edge>
    <edge id=":4868234653_0" function="internal">
        <lane id=":4868234653_0_0" index="0" disallow="pedestrian bicycle tram rail_urban rail rail_electric rail_fast ship" speed="10.79" length="5.77" shape="234.68,250.27 236.10,251.16 236.93,251.99 237.56,253.02 238.38,254.52"/>
    </edge>
    <edge id=":4868234653_1" function="internal">
        <lane id=":4868234653_1_0" index="0" disallow="tram rail_urban rail rail_electric rail_fast ship" speed="16.67" length="6.29" shape="236.21,247.46 237.73,248.54 238.60,249.53 239.46,250.52 241.01,251.56"/>
        <lane id=":4868234653_1_1" index="1" disallow="tram rail_urban rail rail_electric rail_fast ship" speed="16.67" length="6.29" shape="237.74,244.65 239.25,245.72 240.10,246.71 240.95,247.69 242.48,248.72"/>
        <lane id=":4868234653_1_2" index="2" disallow="tram rail_urban rail rail_electric rail_fast ship" speed="16.67" length="6.29" shape="239.27,241.84 240.76,242.90 241.60,243.88 242.44,244.85 243.95,245.87"/>
    </edge>
    <edge id=":4868234655_0" function="internal">
        <lane id=":4868234655_0_0" index="0" disallow="pedestrian bicycle tram rail_urban rail rail_electric rail_fast ship" speed="15.08" length="14.49" shape="244.39,224.13 240.40,224.88 237.55,225.65 234.84,225.71 231.28,224.33"/>
        <lane id=":4868234655_0_1" index="1" disallow="pedestrian bicycle tram rail_urban rail rail_electric rail_fast ship" speed="15.28" length="14.49" shape="244.71,227.32 240.16,228.11 236.91,228.85 233.82,228.78 229.75,227.15"/>
    </edge>
    <edge id=":4868234655_2" function="internal">
        <lane id=":4868234655_2_0" index="0" disallow="tram rail_urban rail rail_electric rail_fast ship" speed="16.67" length="14.40" shape="243.94,231.18 231.28,224.33"/>
        <lane id=":4868234655_2_1" index="1" disallow="tram rail_urban rail rail_electric rail_fast ship" speed="16.67" length="14.40" shape="242.42,233.99 229.75,227.15"/>
    </edge>
    <edge id=":5178641467_0" function="internal">
        <lane id=":5178641467_0_0" index="0" allow="bus" speed="3.65" length="4.67" shape="467.35,1.11 467.61,-0.31 467.31,-1.15 466.46,-1.42 465.05,-1.11"/>
    </edge>
    <edge id=":5963451062_0" function="internal">
        <lane id=":5963451062_0_0" index="0" disallow="tram rail_urban rail rail_electric rail_fast ship" speed="16.67" length="8.40" shape="174.84,213.56 176.76,215.18 177.57,216.88 178.38,218.59 180.29,220.22"/>
        <lane id=":5963451062_0_1" index="1" disallow="tram rail_urban rail rail_electric rail_fast ship" speed="16.67" length="8.40" shape="174.84,213.56 181.84,217.42"/>
        <lane id=":5963451062_0_2" index="2" disallow="tram rail_urban rail rail_electric rail_fast ship" speed="16.67" length="8.40" shape="176.38,210.75 183.39,214.62"/>
        <lane id=":5963451062_0_3" index="3" disallow="tram rail_urban rail rail_electric rail_fast ship" speed="16.67" length="8.40" shape="176.38,210.75 178.79,211.50 180.67,211.28 182.55,211.06 184.95,211.82"/>
    </edge>
    <edge id=":5963462285_0" function="internal">
        <lane id=":5963462285_0_0" index="0" allow="bus" speed="3.65" length="4.67" shape="234.06,472.65 234.70,473.95 235.44,474.45 236.29,474.15 237.24,473.07"/>
    </edge>
    <edge id=":5991929053_0" function="internal">
        <lane id=":5991929053_0_0" index="0" allow="bus" speed="3.65" length="4.67" shape="395.53,75.27 395.58,73.83 395.16,73.04 394.28,72.90 392.93,73.41"/>
    </edge>
    <edge id=":6180300651_0" function="internal">
        <lane id=":6180300651_0_0" index="0" allow="bus" speed="3.65" length="4.67" shape="247.64,485.09 248.28,486.39 249.02,486.89 249.87,486.59 250.82,485.51"/>
    </edge>
    <edge id=":cluster_236573352_236594580_4604275753_4604275754_0" function="internal">
        <lane id=":cluster_236573352_236594580_4604275753_4604275754_0_0" index="0" allow="bus bicycle" speed="6.80" length="17.16" shape="293.98,254.49 279.50,245.30"/>
    </edge>
    <edge id=":cluster_236573352_236594580_4604275753_4604275754_1" function="internal">
        <lane id=":cluster_236573352_236594580_4604275753_4604275754_1_0" index="0" allow="bus bicycle" speed="13.12" length="37.80" shape="293.98,254.49 291.17,254.61 284.50,252.17 273.98,247.19 259.60,239.64"/>
    </edge>
    <edge id=":cluster_236573352_236594580_4604275753_4604275754_2" function="internal">
        <lane id=":cluster_236573352_236594580_4604275753_4604275754_2_0" index="0" allow="bus" speed="19.44" length="40.96" shape="293.98,254.49 287.55,255.95 275.70,256.12 263.58,258.19 256.33,265.39"/>
    </edge>
    <edge id=":cluster_236573352_236594580_4604275753_4604275754_3" function="internal">
        <lane id=":cluster_236573352_236594580_4604275753_4604275754_3_0" index="0" allow="bus bicycle" speed="19.44" length="25.24" shape="293.98,254.49 291.28,259.11 287.79,265.49 284.40,271.92 282.01,276.71"/>
    </edge>
    <edge id=":cluster_236573352_236594580_4604275753_4604275754_4" function="internal">
        <lane id=":cluster_236573352_236594580_4604275753_4604275754_4_0" index="0" allow="bus" speed="3.65" length="2.34" shape="293.98,254.49 294.01,255.94 294.48,256.70"/>
    </edge>
    <edge id=":cluster_236573352_236594580_4604275753_4604275754_25" function="internal">
        <lane id=":cluster_236573352_236594580_4604275753_4604275754_25_0" index="0" allow="bus bicycle" speed="6.80" length="4.36" shape="279.50,245.30 275.81,242.97"/>
    </edge>
    <edge id=":cluster_236573352_236594580_4604275753_4604275754_26" function="internal">
        <lane id=":cluster_236573352_236594580_4604275753_4604275754_26_0" index="0" allow="bus" speed="3.65" length="2.34" shape="294.48,256.70 295.37,256.79 296.68,256.21"/>
    </edge>
    <edge id=":cluster_236573352_236594580_4604275753_4604275754_5" function="internal">
        <lane id=":cluster_236573352_236594580_4604275753_4604275754_5_0" index="0" disallow="bicycle tram rail_urban rail rail_electric rail_fast ship" speed="19.44" length="23.86" shape="296.65,283.16 299.14,276.69 300.24,271.99 301.58,267.43 304.79,261.35"/>
        <lane id=":cluster_236573352_236594580_4604275753_4604275754_5_1" index="1" disallow="bicycle tram rail_urban rail rail_electric rail_fast ship" speed="19.44" length="23.86" shape="293.72,281.87 296.27,275.27 297.41,270.49 298.81,265.83 302.09,259.64"/>
        <lane id=":cluster_236573352_236594580_4604275753_4604275754_5_2" index="2" disallow="bicycle tram rail_urban rail rail_electric rail_fast ship" speed="19.44" length="23.86" shape="290.79,280.58 293.40,273.85 294.59,268.98 296.03,264.24 299.39,257.92"/>
    </edge>
    <edge id=":cluster_236573352_236594580_4604275753_4604275754_8" function="internal">
        <lane id=":cluster_236573352_236594580_4604275753_4604275754_8_0" index="0" allow="bus" speed="19.44" length="42.51" shape="290.79,280.58 291.68,267.55 285.45,256.43 278.14,247.99 275.81,242.97"/>
    </edge>
    <edge id=":cluster_236573352_236594580_4604275753_4604275754_9" function="internal">
        <lane id=":cluster_236573352_236594580_4604275753_4604275754_9_0" index="0" disallow="bicycle tram rail_urban rail rail_electric rail_fast ship" speed="15.16" length="51.39" shape="287.86,279.29 288.92,270.79 284.30,261.82 274.02,252.38 258.08,242.46"/>
    </edge>
    <edge id=":cluster_236573352_236594580_4604275753_4604275754_10" function="internal">
        <lane id=":cluster_236573352_236594580_4604275753_4604275754_10_0" index="0" disallow="bicycle tram rail_urban rail rail_electric rail_fast ship" speed="7.82" length="28.04" shape="284.93,278.00 259.28,266.69"/>
    </edge>
    <edge id=":cluster_236573352_236594580_4604275753_4604275754_11" function="internal">
        <lane id=":cluster_236573352_236594580_4604275753_4604275754_11_0" index="0" allow="bus" speed="3.65" length="4.67" shape="284.93,278.00 284.69,276.58 284.12,275.89 283.22,275.93 282.01,276.71"/>
    </edge>
    <edge id=":cluster_236573352_236594580_4604275753_4604275754_12" function="internal">
        <lane id=":cluster_236573352_236594580_4604275753_4604275754_12_0" index="0" allow="bus bicycle" speed="6.94" length="21.60" shape="262.24,267.99 282.01,276.71"/>
    </edge>
    <edge id=":cluster_236573352_236594580_4604275753_4604275754_13" function="internal">
        <lane id=":cluster_236573352_236594580_4604275753_4604275754_13_0" index="0" allow="bus" speed="19.44" length="42.59" shape="262.24,267.99 267.54,267.03 278.66,268.34 291.53,267.39 302.09,259.64"/>
    </edge>
    <edge id=":cluster_236573352_236594580_4604275753_4604275754_14" function="internal">
        <lane id=":cluster_236573352_236594580_4604275753_4604275754_14_0" index="0" allow="bus bicycle" speed="19.44" length="28.51" shape="262.24,267.99 264.53,262.63 268.45,255.21 272.66,247.92 275.81,242.97"/>
    </edge>
    <edge id=":cluster_236573352_236594580_4604275753_4604275754_15" function="internal">
        <lane id=":cluster_236573352_236594580_4604275753_4604275754_15_0" index="0" allow="bus bicycle" speed="12.03" length="27.86" shape="262.24,267.99 264.14,258.84 264.09,251.53 262.06,246.07 258.08,242.46"/>
    </edge>
    <edge id=":cluster_236573352_236594580_4604275753_4604275754_16" function="internal">
        <lane id=":cluster_236573352_236594580_4604275753_4604275754_16_0" index="0" allow="bus" speed="3.66" length="4.72" shape="262.24,267.99 261.99,266.56 261.41,265.86 260.51,265.91 259.28,266.69"/>
    </edge>
    <edge id=":cluster_236573352_236594580_4604275753_4604275754_17" function="internal">
        <lane id=":cluster_236573352_236594580_4604275753_4604275754_17_0" index="0" allow="bus bicycle" speed="12.96" length="37.84" shape="250.50,256.47 264.84,264.14 274.87,270.07 280.59,274.26 282.01,276.71"/>
    </edge>
    <edge id=":cluster_236573352_236594580_4604275753_4604275754_18" function="internal">
        <lane id=":cluster_236573352_236594580_4604275753_4604275754_18_0" index="0" disallow="bicycle tram rail_urban rail rail_electric rail_fast ship" speed="15.65" length="53.41" shape="250.50,256.47 267.61,263.84 281.47,266.53 292.06,264.56 299.39,257.92"/>
    </edge>
    <edge id=":cluster_236573352_236594580_4604275753_4604275754_19" function="internal">
        <lane id=":cluster_236573352_236594580_4604275753_4604275754_19_0" index="0" allow="bus bicycle" speed="11.80" length="28.62" shape="252.02,253.65 257.94,255.28 263.88,254.04 269.84,249.94 275.81,242.97"/>
    </edge>
    <edge id=":cluster_236573352_236594580_4604275753_4604275754_20" function="internal">
        <lane id=":cluster_236573352_236594580_4604275753_4604275754_20_0" index="0" disallow="tram rail_urban rail rail_electric rail_fast ship" speed="5.58" length="13.91" shape="253.54,250.84 257.82,250.44 260.00,248.92 260.09,246.25 258.08,242.46"/>
    </edge>
    <edge id=":cluster_236573352_236594580_4604275753_4604275754_21" function="internal">
        <lane id=":cluster_236573352_236594580_4604275753_4604275754_21_0" index="0" disallow="pedestrian bicycle tram rail_urban rail rail_electric rail_fast ship" speed="19.44" length="30.19" shape="267.69,237.82 262.38,245.04 258.83,250.13 256.13,255.63 253.37,264.08"/>
    </edge>
    <edge id=":cluster_236573352_236594580_4604275753_4604275754_22" function="internal">
        <lane id=":cluster_236573352_236594580_4604275753_4604275754_22_0" index="0" allow="bus" speed="19.44" length="40.46" shape="270.40,239.53 268.84,249.86 273.74,261.01 279.87,270.71 282.01,276.71"/>
    </edge>
    <edge id=":cluster_236573352_236594580_4604275753_4604275754_23" function="internal">
        <lane id=":cluster_236573352_236594580_4604275753_4604275754_23_0" index="0" disallow="pedestrian bicycle tram rail_urban rail rail_electric rail_fast ship" speed="7.66" length="27.92" shape="273.11,241.25 296.68,256.21"/>
    </edge>
    <edge id=":cluster_236573352_236594580_4604275753_4604275754_24" function="internal">
        <lane id=":cluster_236573352_236594580_4604275753_4604275754_24_0" index="0" allow="bus" speed="3.65" length="4.68" shape="273.11,241.25 273.14,242.70 273.60,243.46 274.49,243.55 275.81,242.97"/>
    </edge>
    <edge id=":cluster_5178641473_5178641478_0" function="internal">
        <lane id=":cluster_5178641473_5178641478_0_0" index="0" allow="bus bicycle" speed="19.44" length="9.42" shape="315.61,220.90 310.34,228.71"/>
    </edge>
    <edge id=":cluster_5178641473_5178641478_1" function="internal">
        <lane id=":cluster_5178641473_5178641478_1_0" index="0" allow="bus" speed="3.65" length="4.67" shape="315.61,220.90 315.60,222.34 316.04,223.12 316.92,223.24 318.26,222.70"/>
    </edge>
    <edge id=":cluster_5178641473_5178641478_2" function="internal">
        <lane id=":cluster_5178641473_5178641478_2_0" index="0" disallow="bicycle tram rail_urban rail rail_electric rail_fast ship" speed="19.44" length="10.07" shape="320.38,236.78 326.20,228.09"/>
        <lane id=":cluster_5178641473_5178641478_2_1" index="1" disallow="bicycle tram rail_urban rail rail_electric rail_fast ship" speed="19.44" length="10.07" shape="317.87,234.76 323.55,226.29"/>
        <lane id=":cluster_5178641473_5178641478_2_2" index="2" disallow="bicycle tram rail_urban rail rail_electric rail_fast ship" speed="19.44" length="10.07" shape="315.36,232.75 320.91,224.49"/>
        <lane id=":cluster_5178641473_5178641478_2_3" index="3" disallow="bicycle tram rail_urban rail rail_electric rail_fast ship" speed="19.44" length="10.07" shape="312.85,230.73 318.26,222.70"/>
    </edge>
    <edge id=":cluster_5178641473_5178641478_6" function="internal">
        <lane id=":cluster_5178641473_5178641478_6_0" index="0" allow="bus" speed="3.66" length="2.35" shape="312.85,230.73 312.98,229.28 312.60,228.46"/>
    </edge>
    <edge id=":cluster_5178641473_5178641478_19" function="internal">
        <lane id=":cluster_5178641473_5178641478_19_0" index="0" allow="bus" speed="3.66" length="2.35" shape="312.60,228.46 311.72,228.27 310.34,228.71"/>
    </edge>
    <edge id=":cluster_5178641473_5178641478_7" function="internal">
        <lane id=":cluster_5178641473_5178641478_7_0" index="0" allow="bus bicycle" speed="6.57" length="19.50" shape="295.15,216.49 310.34,228.71"/>
    </edge>
    <edge id=":cluster_5178641473_5178641478_8" function="internal">
        <lane id=":cluster_5178641473_5178641478_8_0" index="0" allow="bus" speed="19.44" length="31.25" shape="295.15,216.49 299.72,218.13 307.36,224.59 316.00,229.46 323.55,226.29"/>
        <lane id=":cluster_5178641473_5178641478_8_1" index="1" allow="bus" speed="19.44" length="31.25" shape="295.15,216.49 299.43,217.67 306.36,223.22 314.13,227.40 320.91,224.49"/>
    </edge>
    <edge id=":cluster_5178641473_5178641478_10" function="internal">
        <lane id=":cluster_5178641473_5178641478_10_0" index="0" allow="bus bicycle" speed="19.44" length="7.87" shape="295.15,216.49 300.10,210.37"/>
    </edge>
    <edge id=":cluster_5178641473_5178641478_11" function="internal">
        <lane id=":cluster_5178641473_5178641478_11_0" index="0" allow="bus" speed="3.65" length="4.67" shape="295.15,216.49 295.28,215.06 294.90,214.24 294.03,214.05 292.65,214.49"/>
    </edge>
    <edge id=":cluster_5178641473_5178641478_12" function="internal">
        <lane id=":cluster_5178641473_5178641478_12_0" index="0" disallow="pedestrian bicycle tram rail_urban rail rail_electric rail_fast ship" speed="19.44" length="10.18" shape="289.50,203.17 288.61,205.19 288.64,206.87 288.64,208.53 287.67,210.48"/>
        <lane id=":cluster_5178641473_5178641478_12_1" index="1" disallow="pedestrian bicycle tram rail_urban rail rail_electric rail_fast ship" speed="19.44" length="10.18" shape="289.50,203.17 288.86,205.71 289.90,207.88 290.91,210.03 290.16,212.48"/>
        <lane id=":cluster_5178641473_5178641478_12_2" index="2" disallow="pedestrian bicycle tram rail_urban rail rail_electric rail_fast ship" speed="19.44" length="10.18" shape="289.50,203.17 289.06,206.31 291.17,208.90 293.23,211.46 292.65,214.49"/>
    </edge>
    <edge id=":cluster_5178641473_5178641478_15" function="internal">
        <lane id=":cluster_5178641473_5178641478_15_0" index="0" allow="bus" speed="19.44" length="32.74" shape="292.15,204.97 291.67,213.20 298.96,219.80 307.39,224.92 310.34,228.71"/>
    </edge>
    <edge id=":cluster_5178641473_5178641478_16" function="internal">
        <lane id=":cluster_5178641473_5178641478_16_0" index="0" disallow="pedestrian bicycle tram rail_urban rail rail_electric rail_fast ship" speed="8.08" length="31.56" shape="294.80,206.77 320.91,224.49"/>