<?xml version="1.0" encoding="UTF-8"?>

<!-- generated on 2023-07-19 15:18:01 by Eclipse SUMO netconvert Version 1.17.0
<configuration xmlns:xsi="http://www.w3.org/2001/XMLSchema-instance" xsi:noNamespaceSchemaLocation="http://sumo.dlr.de/xsd/netconvertConfiguration.xsd">

    <input>
        <sumo-net-file value="osm.net.xml.gz"/>
    </input>

    <output>
        <output-file value="osm.net.xml"/>
        <output.street-names value="true"/>
    </output>

    <processing>
        <geometry.min-radius.fix.railways value="false"/>
        <geometry.max-grade.fix value="false"/>
        <offset.disable-normalization value="true"/>
        <lefthand value="1"/>
    </processing>

    <junctions>
        <no-turnarounds value="true"/>
        <junctions.corner-detail value="5"/>
        <junctions.limit-turn-speed value="5.50"/>
        <rectangular-lane-cut value="0"/>
    </junctions>

    <pedestrian>
        <walkingareas value="0"/>
    </pedestrian>

</configuration>
-->

<net version="1.16" junctionCornerDetail="5" lefthand="true" limitTurnSpeed="5.50" xmlns:xsi="http://www.w3.org/2001/XMLSchema-instance" xsi:noNamespaceSchemaLocation="http://sumo.dlr.de/xsd/net_file.xsd">

    <location netOffset="-361825.04,-153544.51" convBoundary="0.00,0.00,1513.93,252.03" origBoundary="103.757992,1.388834,103.771597,1.391118" projParameter="+proj=utm +zone=48 +ellps=WGS84 +datum=WGS84 +units=m +no_defs"/>

    <type id="highway.bridleway" priority="1" numLanes="1" speed="2.78" allow="pedestrian" oneway="1" width="2.00"/>
    <type id="highway.bus_guideway" priority="1" numLanes="1" speed="27.78" allow="bus" oneway="1"/>
    <type id="highway.cycleway" priority="1" numLanes="1" speed="5.56" allow="bicycle" oneway="0" width="1.00"/>
    <type id="highway.footway" priority="1" numLanes="1" speed="2.78" allow="pedestrian" oneway="1" width="2.00"/>
    <type id="highway.ford" priority="1" numLanes="1" speed="2.78" allow="army" oneway="0"/>
    <type id="highway.living_street" priority="2" numLanes="1" speed="2.78" disallow="tram rail_urban rail rail_electric rail_fast ship" oneway="0"/>
    <type id="highway.motorway" priority="14" numLanes="2" speed="39.44" allow="private emergency authority army vip passenger hov taxi bus coach delivery truck trailer motorcycle evehicle custom1 custom2" oneway="1"/>
    <type id="highway.motorway_link" priority="9" numLanes="1" speed="22.22" allow="private emergency authority army vip passenger hov taxi bus coach delivery truck trailer motorcycle evehicle custom1 custom2" oneway="1"/>
    <type id="highway.path" priority="1" numLanes="1" speed="5.56" allow="pedestrian bicycle" oneway="0" width="2.00"/>
    <type id="highway.pedestrian" priority="1" numLanes="1" speed="2.78" allow="pedestrian" oneway="1" width="2.00"/>
    <type id="highway.primary" priority="12" numLanes="2" speed="27.78" disallow="tram rail_urban rail rail_electric rail_fast ship" oneway="0"/>
    <type id="highway.primary_link" priority="7" numLanes="1" speed="22.22" disallow="tram rail_urban rail rail_electric rail_fast ship" oneway="0"/>
    <type id="highway.raceway" priority="15" numLanes="2" speed="83.33" allow="vip" oneway="0"/>
    <type id="highway.residential" priority="3" numLanes="1" speed="13.89" disallow="tram rail_urban rail rail_electric rail_fast ship" oneway="0"/>
    <type id="highway.secondary" priority="11" numLanes="1" speed="27.78" disallow="tram rail_urban rail rail_electric rail_fast ship" oneway="0"/>
    <type id="highway.secondary_link" priority="6" numLanes="1" speed="22.22" disallow="tram rail_urban rail rail_electric rail_fast ship" oneway="0"/>
    <type id="highway.service" priority="1" numLanes="1" speed="5.56" allow="pedestrian delivery bicycle" oneway="0"/>
    <type id="highway.stairs" priority="1" numLanes="1" speed="1.39" allow="pedestrian" oneway="1" width="2.00"/>
    <type id="highway.step" priority="1" numLanes="1" speed="1.39" allow="pedestrian" oneway="1" width="2.00"/>
    <type id="highway.steps" priority="1" numLanes="1" speed="1.39" allow="pedestrian" oneway="1" width="2.00"/>
    <type id="highway.tertiary" priority="10" numLanes="1" speed="22.22" disallow="tram rail_urban rail rail_electric rail_fast ship" oneway="0"/>
    <type id="highway.tertiary_link" priority="5" numLanes="1" speed="22.22" disallow="tram rail_urban rail rail_electric rail_fast ship" oneway="0"/>
    <type id="highway.track" priority="1" numLanes="1" speed="5.56" allow="pedestrian motorcycle moped bicycle" oneway="0"/>
    <type id="highway.trunk" priority="13" numLanes="2" speed="27.78" disallow="pedestrian bicycle tram rail_urban rail rail_electric rail_fast ship" oneway="0"/>
    <type id="highway.trunk_link" priority="8" numLanes="1" speed="22.22" disallow="pedestrian bicycle tram rail_urban rail rail_electric rail_fast ship" oneway="0"/>
    <type id="highway.unclassified" priority="4" numLanes="1" speed="13.89" disallow="tram rail_urban rail rail_electric rail_fast ship" oneway="0"/>
    <type id="highway.unsurfaced" priority="1" numLanes="1" speed="8.33" disallow="tram rail_urban rail rail_electric rail_fast ship" oneway="0"/>
    <type id="railway.highspeed" priority="21" numLanes="1" speed="69.44" allow="rail_fast" oneway="1"/>
    <type id="railway.light_rail" priority="19" numLanes="1" speed="27.78" allow="rail_urban" oneway="1"/>
    <type id="railway.preserved" priority="16" numLanes="1" speed="27.78" allow="rail" oneway="1"/>
    <type id="railway.rail" priority="20" numLanes="1" speed="44.44" allow="rail" oneway="1"/>
    <type id="railway.subway" priority="18" numLanes="1" speed="27.78" allow="rail_urban" oneway="1"/>
    <type id="railway.tram" priority="17" numLanes="1" speed="13.89" allow="tram" oneway="1"/>

    <edge id=":1030864444-AddedOnRampNode_0" function="internal">
        <lane id=":1030864444-AddedOnRampNode_0_0" index="0" allow="private emergency authority army vip passenger hov taxi bus coach delivery truck trailer motorcycle evehicle custom1 custom2" speed="13.89" length="8.00" shape="495.46,111.69 487.58,110.31"/>
    </edge>
    <edge id=":136807060-AddedOffRampNode_0" function="internal">
        <lane id=":136807060-AddedOffRampNode_0_0" index="0" allow="private emergency authority army vip passenger hov taxi bus coach delivery truck trailer motorcycle evehicle custom1 custom2" speed="25.00" length="8.73" shape="228.42,81.18 230.59,83.05 231.05,85.57 231.51,88.09 233.68,89.97"/>
        <lane id=":136807060-AddedOffRampNode_0_1" index="1" allow="private emergency authority army vip passenger hov taxi bus coach delivery truck trailer motorcycle evehicle custom1 custom2" speed="25.00" length="8.73" shape="228.42,81.18 230.55,82.51 231.61,84.07 232.67,85.64 234.80,86.97"/>
        <lane id=":136807060-AddedOffRampNode_0_2" index="2" allow="private emergency authority army vip passenger hov taxi bus coach delivery truck trailer motorcycle evehicle custom1 custom2" speed="25.00" length="8.73" shape="228.42,81.18 235.92,83.97"/>
        <lane id=":136807060-AddedOffRampNode_0_3" index="3" allow="private emergency authority army vip passenger hov taxi bus coach delivery truck trailer motorcycle evehicle custom1 custom2" speed="25.00" length="8.73" shape="229.54,78.18 237.04,80.97"/>
        <lane id=":136807060-AddedOffRampNode_0_4" index="4" allow="private emergency authority army vip passenger hov taxi bus coach delivery truck trailer motorcycle evehicle custom1 custom2" speed="25.00" length="8.73" shape="230.66,75.18 238.16,77.97"/>
    </edge>
    <edge id=":158043218_0" function="internal">
        <lane id=":158043218_0_0" index="0" allow="private emergency authority army vip passenger hov taxi bus coach delivery truck trailer motorcycle evehicle custom1 custom2" speed="25.00" length="7.97" shape="803.04,203.28 795.23,202.77"/>
        <lane id=":158043218_0_1" index="1" allow="private emergency authority army vip passenger hov taxi bus coach delivery truck trailer motorcycle evehicle custom1 custom2" speed="25.00" length="7.97" shape="802.88,206.48 794.97,205.96"/>
        <lane id=":158043218_0_2" index="2" allow="private emergency authority army vip passenger hov taxi bus coach delivery truck trailer motorcycle evehicle custom1 custom2" speed="25.00" length="7.97" shape="802.72,209.67 794.71,209.15"/>
        <lane id=":158043218_0_3" index="3" allow="private emergency authority army vip passenger hov taxi bus coach delivery truck trailer motorcycle evehicle custom1 custom2" speed="25.00" length="7.97" shape="802.56,212.87 794.45,212.34"/>
    </edge>
    <edge id=":158043238_0" function="internal">
        <lane id=":158043238_0_0" index="0" allow="private emergency authority army vip passenger hov taxi bus coach delivery truck trailer motorcycle evehicle custom1 custom2" speed="25.00" length="8.21" shape="574.17,173.08 571.92,172.26 570.52,171.34 569.12,170.40 566.89,169.54"/>
        <lane id=":158043238_0_1" index="1" allow="private emergency authority army vip passenger hov taxi bus coach delivery truck trailer motorcycle evehicle custom1 custom2" speed="25.00" length="8.21" shape="573.40,176.19 571.13,175.36 569.72,174.44 568.31,173.50 566.06,172.63"/>
        <lane id=":158043238_0_2" index="2" allow="private emergency authority army vip passenger hov taxi bus coach delivery truck trailer motorcycle evehicle custom1 custom2" speed="25.00" length="8.21" shape="572.63,179.29 570.34,178.47 568.92,177.54 567.49,176.59 565.22,175.72"/>
    </edge>
    <edge id=":158043247_0" function="internal">
        <lane id=":158043247_0_0" index="0" allow="private emergency authority army vip passenger hov taxi bus coach delivery truck trailer motorcycle evehicle custom1 custom2" speed="19.45" length="2.76" shape="285.01,71.98 282.40,71.09"/>
    </edge>
    <edge id=":158043247_1" function="internal">
        <lane id=":158043247_1_0" index="0" allow="private emergency authority army vip passenger hov taxi bus coach delivery truck trailer motorcycle evehicle custom1 custom2" speed="25.00" length="2.98" shape="283.99,75.05 281.28,74.09"/>
        <lane id=":158043247_1_1" index="1" allow="private emergency authority army vip passenger hov taxi bus coach delivery truck trailer motorcycle evehicle custom1 custom2" speed="25.00" length="2.98" shape="282.97,78.08 280.16,77.08"/>
        <lane id=":158043247_1_2" index="2" allow="private emergency authority army vip passenger hov taxi bus coach delivery truck trailer motorcycle evehicle custom1 custom2" speed="25.00" length="2.98" shape="281.95,81.11 279.04,80.08"/>
    </edge>
    <edge id=":158044013_0" function="internal">
        <lane id=":158044013_0_0" index="0" allow="private emergency authority army vip passenger hov taxi bus coach delivery truck trailer motorcycle evehicle custom1 custom2" speed="25.00" length="3.32" shape="801.11,228.83 804.66,229.10"/>
        <lane id=":158044013_0_1" index="1" allow="private emergency authority army vip passenger hov taxi bus coach delivery truck trailer motorcycle evehicle custom1 custom2" speed="25.00" length="3.32" shape="801.43,225.65 804.82,225.91"/>
        <lane id=":158044013_0_2" index="2" allow="private emergency authority army vip passenger hov taxi bus coach delivery truck trailer motorcycle evehicle custom1 custom2" speed="25.00" length="3.32" shape="801.75,222.47 804.98,222.71"/>
        <lane id=":158044013_0_3" index="3" allow="private emergency authority army vip passenger hov taxi bus coach delivery truck trailer motorcycle evehicle custom1 custom2" speed="25.00" length="3.32" shape="802.07,219.28 805.14,219.51"/>
    </edge>
    <edge id=":158044013_4" function="internal">
        <lane id=":158044013_4_0" index="0" allow="private emergency authority army vip passenger hov taxi bus coach delivery truck trailer motorcycle evehicle custom1 custom2" speed="4.97" length="2.34" shape="802.38,231.62 802.81,232.06 803.28,232.24 803.82,232.28 804.49,232.30"/>
    </edge>
    <edge id=":158045874_0" function="internal">
        <lane id=":158045874_0_0" index="0" allow="private emergency authority army vip passenger hov taxi bus coach delivery truck trailer motorcycle evehicle custom1 custom2" speed="23.61" length="3.02" shape="321.14,125.14 323.94,126.27"/>
    </edge>
    <edge id=":158045874_1" function="internal">
        <lane id=":158045874_1_0" index="0" allow="private emergency authority army vip passenger hov taxi bus coach delivery truck trailer motorcycle evehicle custom1 custom2" speed="25.00" length="3.55" shape="322.35,122.18 323.32,122.31 324.04,122.00 324.76,121.67 325.76,121.74"/>
        <lane id=":158045874_1_1" index="1" allow="private emergency authority army vip passenger hov taxi bus coach delivery truck trailer motorcycle evehicle custom1 custom2" speed="25.00" length="3.55" shape="323.55,119.21 324.52,119.34 325.24,119.03 325.96,118.70 326.96,118.76"/>
        <lane id=":158045874_1_2" index="2" allow="private emergency authority army vip passenger hov taxi bus coach delivery truck trailer motorcycle evehicle custom1 custom2" speed="25.00" length="3.55" shape="324.76,116.25 325.73,116.37 326.44,116.06 327.15,115.72 328.15,115.79"/>
        <lane id=":158045874_1_3" index="3" allow="private emergency authority army vip passenger hov taxi bus coach delivery truck trailer motorcycle evehicle custom1 custom2" speed="25.00" length="3.55" shape="325.96,113.28 326.93,113.41 327.64,113.09 328.35,112.75 329.34,112.81"/>
    </edge>
    <edge id=":262190480#1-AddedOnRampNode_0" function="internal">
        <lane id=":262190480#1-AddedOnRampNode_0_0" index="0" allow="private emergency authority army vip passenger hov taxi bus coach delivery truck trailer motorcycle evehicle custom1 custom2" speed="25.00" length="8.00" shape="191.87,43.26 184.31,40.64"/>
        <lane id=":262190480#1-AddedOnRampNode_0_1" index="1" allow="private emergency authority army vip passenger hov taxi bus coach delivery truck trailer motorcycle evehicle custom1 custom2" speed="25.00" length="8.00" shape="190.82,46.28 183.26,43.66"/>
        <lane id=":262190480#1-AddedOnRampNode_0_2" index="2" allow="private emergency authority army vip passenger hov taxi bus coach delivery truck trailer motorcycle evehicle custom1 custom2" speed="25.00" length="8.00" shape="189.77,49.31 182.21,46.68"/>
    </edge>
    <edge id=":4600357234_0" function="internal">
        <lane id=":4600357234_0_0" index="0" allow="private emergency authority army vip passenger hov taxi bus coach delivery truck trailer motorcycle evehicle custom1 custom2" speed="23.61" length="3.27" shape="929.07,203.44 928.12,203.60 927.46,203.68 926.79,203.72 925.82,203.72"/>
    </edge>
    <edge id=":4600357234_1" function="internal">
        <lane id=":4600357234_1_0" index="0" allow="private emergency authority army vip passenger hov taxi bus coach delivery truck trailer motorcycle evehicle custom1 custom2" speed="25.00" length="3.42" shape="929.15,206.89 925.82,206.92"/>
        <lane id=":4600357234_1_1" index="1" allow="private emergency authority army vip passenger hov taxi bus coach delivery truck trailer motorcycle evehicle custom1 custom2" speed="25.00" length="3.42" shape="929.21,210.09 925.82,210.12"/>
        <lane id=":4600357234_1_2" index="2" allow="private emergency authority army vip passenger hov taxi bus coach delivery truck trailer motorcycle evehicle custom1 custom2" speed="25.00" length="3.42" shape="929.26,213.29 925.82,213.32"/>
        <lane id=":4600357234_1_3" index="3" allow="private emergency authority army vip passenger hov taxi bus coach delivery truck trailer motorcycle evehicle custom1 custom2" speed="25.00" length="3.42" shape="929.32,216.49 925.82,216.52"/>
    </edge>
    <edge id=":481060199#1-AddedOnRampNode_0" function="internal">
        <lane id=":481060199#1-AddedOnRampNode_0_0" index="0" allow="private emergency authority army vip passenger hov taxi bus coach delivery truck trailer motorcycle evehicle custom1 custom2" speed="25.00" length="8.00" shape="899.03,233.07 907.03,233.19"/>
        <lane id=":481060199#1-AddedOnRampNode_0_1" index="1" allow="private emergency authority army vip passenger hov taxi bus coach delivery truck trailer motorcycle evehicle custom1 custom2" speed="25.00" length="8.00" shape="899.08,229.87 907.08,229.99"/>
        <lane id=":481060199#1-AddedOnRampNode_0_2" index="2" allow="private emergency authority army vip passenger hov taxi bus coach delivery truck trailer motorcycle evehicle custom1 custom2" speed="25.00" length="8.00" shape="899.13,226.67 907.13,226.79"/>
        <lane id=":481060199#1-AddedOnRampNode_0_3" index="3" allow="private emergency authority army vip passenger hov taxi bus coach delivery truck trailer motorcycle evehicle custom1 custom2" speed="25.00" length="8.00" shape="899.18,223.47 907.18,223.59"/>
    </edge>
    <edge id=":6600201350_0" function="internal">
        <lane id=":6600201350_0_0" index="0" allow="private emergency authority army vip passenger hov taxi bus coach delivery truck trailer motorcycle evehicle custom1 custom2" speed="22.22" length="3.66" shape="702.89,241.77 706.52,242.15"/>
    </edge>
    <edge id=":6600201350_1" function="internal">
        <lane id=":6600201350_1_0" index="0" allow="private emergency authority army vip passenger hov taxi bus coach delivery truck trailer motorcycle evehicle custom1 custom2" speed="22.22" length="3.45" shape="703.33,238.60 704.34,238.74 705.04,238.78 705.74,238.73 706.75,238.59"/>
    </edge>
    <edge id=":6600201361_0" function="internal">
        <lane id=":6600201361_0_0" index="0" allow="private emergency authority army vip passenger hov taxi bus coach delivery truck trailer motorcycle evehicle custom1 custom2" speed="22.22" length="3.11" shape="1087.94,172.89 1084.84,172.99"/>
    </edge>
    <edge id=":6600201361_1" function="internal">
        <lane id=":6600201361_1_0" index="0" allow="private emergency authority army vip passenger hov taxi bus coach delivery truck trailer motorcycle evehicle custom1 custom2" speed="22.22" length="3.19" shape="1088.10,176.09 1087.16,176.14 1086.51,176.19 1085.87,176.28 1084.93,176.44"/>
    </edge>
    <edge id=":6605064309_0" function="internal">
        <lane id=":6605064309_0_0" index="0" allow="private emergency authority army vip passenger hov taxi bus coach delivery truck trailer motorcycle evehicle custom1 custom2" speed="22.22" length="3.80" shape="704.66,233.45 708.43,233.86"/>
    </edge>
    <edge id=":6605064309_1" function="internal">
        <lane id=":6605064309_1_0" index="0" allow="private emergency authority army vip passenger hov taxi bus coach delivery truck trailer motorcycle evehicle custom1 custom2" speed="7.96" length="3.59" shape="705.11,230.28 706.15,230.39 706.89,230.34 707.59,230.10 708.55,229.64"/>
    </edge>
    <edge id=":6605064310_0" function="internal">
        <lane id=":6605064310_0_0" index="0" allow="private emergency authority army vip passenger hov taxi bus coach delivery truck trailer motorcycle evehicle custom1 custom2" speed="22.22" length="8.28" shape="697.07,228.94 699.38,229.88 700.69,231.24 702.01,232.57 704.34,233.41"/>
        <lane id=":6605064310_0_1" index="1" allow="private emergency authority army vip passenger hov taxi bus coach delivery truck trailer motorcycle evehicle custom1 custom2" speed="22.22" length="8.28" shape="697.07,228.94 704.78,230.24"/>
    </edge>
    <edge id=":6605064310_2" function="internal">
        <lane id=":6605064310_2_0" index="0" allow="private emergency authority army vip passenger hov taxi bus coach delivery truck trailer motorcycle evehicle custom1 custom2" speed="8.08" length="2.59" shape="699.74,225.21 701.03,227.28 701.13,227.39"/>
    </edge>
    <edge id=":6605064310_3" function="internal">
        <lane id=":6605064310_3_0" index="0" allow="private emergency authority army vip passenger hov taxi bus coach delivery truck trailer motorcycle evehicle custom1 custom2" speed="8.08" length="4.74" shape="701.13,227.39 702.30,228.81 703.56,229.79 704.78,230.24"/>
    </edge>
    <edge id=":6605064314_0" function="internal">
        <lane id=":6605064314_0_0" index="0" allow="private emergency authority army vip passenger hov taxi bus coach delivery truck trailer motorcycle evehicle custom1 custom2" speed="13.89" length="57.49" shape="432.06,117.60 378.21,97.47"/>
    </edge>
    <edge id=":6605064314_1" function="internal">
        <lane id=":6605064314_1_0" index="0" allow="private emergency authority army vip passenger hov taxi bus coach delivery truck trailer motorcycle evehicle custom1 custom2" speed="13.89" length="57.49" shape="432.06,117.60 377.14,100.58"/>
    </edge>
    <edge id=":6605064322_0" function="internal">
        <lane id=":6605064322_0_0" index="0" allow="private emergency authority army vip passenger hov taxi bus coach delivery truck trailer motorcycle evehicle custom1 custom2" speed="18.05" length="3.29" shape="590.72,133.41 589.76,133.22 589.11,133.06 588.47,132.87 587.54,132.57"/>
    </edge>
    <edge id=":6605064322_1" function="internal">
        <lane id=":6605064322_1_0" index="0" allow="private emergency authority army vip passenger hov taxi bus coach delivery truck trailer motorcycle evehicle custom1 custom2" speed="13.89" length="3.38" shape="589.58,137.05 588.73,136.52 588.13,136.19 587.49,135.93 586.54,135.61"/>
    </edge>
    <edge id=":6605064324_0" function="internal">
        <lane id=":6605064324_0_0" index="0" allow="private emergency authority army vip passenger hov taxi bus coach delivery truck trailer motorcycle evehicle custom1 custom2" speed="18.05" length="0.24" shape="820.15,192.77 819.91,192.75"/>
    </edge>
    <edge id=":702815550#0-AddedOffRampNode_0" function="internal">
        <lane id=":702815550#0-AddedOffRampNode_0_0" index="0" allow="private emergency authority army vip passenger hov taxi bus coach delivery truck trailer motorcycle evehicle custom1 custom2" speed="22.22" length="8.40" shape="602.33,222.80 604.65,223.75 605.96,225.12 607.27,226.49 609.59,227.44"/>
        <lane id=":702815550#0-AddedOffRampNode_0_1" index="1" allow="private emergency authority army vip passenger hov taxi bus coach delivery truck trailer motorcycle evehicle custom1 custom2" speed="22.22" length="8.40" shape="602.33,222.80 610.19,224.29"/>
    </edge>
    <edge id=":702815557#0-AddedOffRampNode_0" function="internal">
        <lane id=":702815557#0-AddedOffRampNode_0_0" index="0" allow="private emergency authority army vip passenger hov taxi bus coach delivery truck trailer motorcycle evehicle custom1 custom2" speed="22.22" length="8.40" shape="1190.35,171.01 1187.87,170.63 1186.28,169.61 1184.69,168.59 1182.21,168.21"/>
        <lane id=":702815557#0-AddedOffRampNode_0_1" index="1" allow="private emergency authority army vip passenger hov taxi bus coach delivery truck trailer motorcycle evehicle custom1 custom2" speed="22.22" length="8.40" shape="1190.35,171.01 1182.36,171.41"/>
    </edge>

    <edge id="1030864443" from="6605064324" to="6605064322" priority="9" type="highway.motorway_link" spreadType="center" shape="820.03,192.76 689.35,179.02 647.97,168.56 624.35,159.04 588.15,136.14">
        <lane id="1030864443_0" index="0" allow="private emergency authority army vip passenger hov taxi bus coach delivery truck trailer motorcycle evehicle custom1 custom2" speed="13.89" length="240.57" shape="819.91,192.75 689.35,179.02 647.97,168.56 624.35,159.04 589.58,137.05">
            <param key="origId" value="1030864443 703350197"/>
        </lane>
    </edge>
    <edge id="1030864444" from="1030864444-AddedOnRampNode" to="5296873774" priority="9" type="highway.motorway_link" spreadType="center" shape="491.52,111.00 417.34,97.92 305.78,70.23">
        <lane id="1030864444_0" index="0" allow="private emergency authority army vip passenger hov taxi bus coach delivery truck trailer motorcycle evehicle custom1 custom2" speed="13.89" length="157.32" shape="487.58,110.31 417.34,97.92 333.88,77.20">
            <param key="origId" value="1030864444"/>
        </lane>
    </edge>
    <edge id="1030864444-AddedOnRampEdge" from="6605064322" to="1030864444-AddedOnRampNode" priority="9" type="highway.motorway_link" spreadType="center" shape="588.65,134.62 549.39,121.65 505.14,111.77 491.80,109.42">
        <lane id="1030864444-AddedOnRampEdge_0" index="0" allow="private emergency authority army vip passenger hov taxi bus coach delivery truck trailer motorcycle evehicle custom1 custom2" speed="13.89" length="94.54" acceleration="1" shape="587.54,132.57 549.82,120.11 505.45,110.20 496.02,108.54">
            <param key="origId" value="1030864444"/>
        </lane>
        <lane id="1030864444-AddedOnRampEdge_1" index="1" allow="private emergency authority army vip passenger hov taxi bus coach delivery truck trailer motorcycle evehicle custom1 custom2" speed="13.89" length="94.54" shape="586.54,135.61 548.96,123.19 504.83,113.34 495.46,111.69">
            <param key="origId" value="1030864444"/>
        </lane>
    </edge>
    <edge id="136807060" from="4600357233" to="136807060-AddedOffRampNode" name="Kranji Expressway" priority="9" type="highway.motorway_link" spreadType="center" shape="153.41,54.45 202.34,68.02 233.29,79.58">
        <lane id="136807060_0" index="0" allow="private emergency authority army vip passenger hov taxi bus coach delivery truck trailer motorcycle evehicle custom1 custom2" speed="25.00" length="79.81" shape="152.55,57.53 201.35,71.07 228.42,81.18">
            <param key="origId" value="136807060"/>
        </lane>
        <lane id="136807060_1" index="1" allow="private emergency authority army vip passenger hov taxi bus coach delivery truck trailer motorcycle evehicle custom1 custom2" speed="25.00" length="79.81" shape="153.41,54.45 202.34,68.02 229.54,78.18">
            <param key="origId" value="136807060"/>
        </lane>
        <lane id="136807060_2" index="2" allow="private emergency authority army vip passenger hov taxi bus coach delivery truck trailer motorcycle evehicle custom1 custom2" speed="25.00" length="79.81" shape="154.27,51.37 203.33,64.97 230.66,75.18">
            <param key="origId" value="136807060"/>
        </lane>
        <param key="ref" value="KJE"/>
    </edge>
    <edge id="136807060-AddedOffRampEdge" from="136807060-AddedOffRampNode" to="158045874" name="Kranji Expressway" priority="9" type="highway.motorway_link" spreadType="center" shape="232.17,82.57 246.21,87.81 324.90,119.76">
        <lane id="136807060-AddedOffRampEdge_0" index="0" allow="private emergency authority army vip passenger hov taxi bus coach delivery truck trailer motorcycle evehicle custom1 custom2" speed="25.00" length="94.46" shape="233.68,89.97 243.89,93.77 321.14,125.14">
            <param key="origId" value="136807060"/>
        </lane>
        <lane id="136807060-AddedOffRampEdge_1" index="1" allow="private emergency authority army vip passenger hov taxi bus coach delivery truck trailer motorcycle evehicle custom1 custom2" speed="25.00" length="94.46" shape="234.80,86.97 245.05,90.79 322.35,122.18">
            <param key="origId" value="136807060"/>
        </lane>
        <lane id="136807060-AddedOffRampEdge_2" index="2" allow="private emergency authority army vip passenger hov taxi bus coach delivery truck trailer motorcycle evehicle custom1 custom2" speed="25.00" length="94.46" shape="235.92,83.97 246.21,87.81 323.55,119.21">
            <param key="origId" value="136807060"/>
        </lane>
        <lane id="136807060-AddedOffRampEdge_3" index="3" allow="private emergency authority army vip passenger hov taxi bus coach delivery truck trailer motorcycle evehicle custom1 custom2" speed="25.00" length="94.46" shape="237.04,80.97 247.37,84.83 324.76,116.25">
            <param key="origId" value="136807060"/>
        </lane>
        <lane id="136807060-AddedOffRampEdge_4" index="4" allow="private emergency authority army vip passenger hov taxi bus coach delivery truck trailer motorcycle evehicle custom1 custom2" speed="25.00" length="94.46" shape="238.16,77.97 248.53,81.85 325.96,113.28">
            <param key="origId" value="136807060"/>
        </lane>
        <param key="ref" value="KJE"/>
    </edge>
    <edge id="262190480#0" from="158043238" to="158043247" name="Kranji Expressway" priority="14" type="highway.motorway" spreadType="center" shape="569.91,173.67 526.99,162.12 453.30,139.58 393.43,117.85 338.94,96.88 281.54,77.60">
        <lane id="262190480#0_0" index="0" allow="private emergency authority army vip passenger hov taxi bus coach delivery truck trailer motorcycle evehicle custom1 custom2" speed="25.00" length="298.64" shape="566.89,169.54 527.87,159.04 454.31,136.54 394.55,114.85 340.02,93.87 283.99,75.05">
            <param key="origId" value="262190480"/>
        </lane>
        <lane id="262190480#0_1" index="1" allow="private emergency authority army vip passenger hov taxi bus coach delivery truck trailer motorcycle evehicle custom1 custom2" speed="25.00" length="298.64" shape="566.06,172.63 526.99,162.12 453.30,139.58 393.43,117.85 338.94,96.88 282.97,78.08">
            <param key="origId" value="262190480"/>
        </lane>
        <lane id="262190480#0_2" index="2" allow="private emergency authority army vip passenger hov taxi bus coach delivery truck trailer motorcycle evehicle custom1 custom2" speed="25.00" length="298.64" shape="565.22,175.72 526.11,165.20 452.29,142.62 392.31,120.85 337.86,99.89 281.95,81.11">
            <param key="origId" value="262190480"/>
        </lane>
        <param key="ref" value="KJE"/>
    </edge>