<?xml version="1.0" encoding="UTF-8"?>

<!-- generated on 2023-07-20 10:45:51 by Eclipse SUMO netconvert Version 1.17.0
<configuration xmlns:xsi="http://www.w3.org/2001/XMLSchema-instance" xsi:noNamespaceSchemaLocation="http://sumo.dlr.de/xsd/netconvertConfiguration.xsd">

    <input>
        <sumo-net-file value="osm.net.xml.gz"/>
    </input>

    <output>
        <output-file value="osm.net.xml"/>
        <output.street-names value="true"/>
    </output>

    <processing>
        <geometry.min-radius.fix.railways value="false"/>
        <geometry.max-grade.fix value="false"/>
        <offset.disable-normalization value="true"/>
        <lefthand value="0"/>
    </processing>

    <junctions>
        <no-turnarounds value="true"/>
        <junctions.corner-detail value="5"/>
        <junctions.limit-turn-speed value="5.50"/>
        <rectangular-lane-cut value="0"/>
    </junctions>

    <pedestrian>
        <walkingareas value="0"/>
    </pedestrian>

</configuration>
-->

<net version="1.16" junctionCornerDetail="5" limitTurnSpeed="5.50" xmlns:xsi="http://www.w3.org/2001/XMLSchema-instance" xsi:noNamespaceSchemaLocation="http://sumo.dlr.de/xsd/net_file.xsd">

    <location netOffset="-371682.94,-153659.98" convBoundary="0.00,0.00,2631.83,1614.13" origBoundary="103.846585,1.389930,103.870237,1.404528" projParameter="+proj=utm +zone=48 +ellps=WGS84 +datum=WGS84 +units=m +no_defs"/>

    <type id="highway.bridleway" priority="1" numLanes="1" speed="2.78" allow="pedestrian" oneway="1" width="2.00"/>
    <type id="highway.bus_guideway" priority="1" numLanes="1" speed="27.78" allow="bus" oneway="1"/>
    <type id="highway.cycleway" priority="1" numLanes="1" speed="5.56" allow="bicycle" oneway="0" width="1.00"/>
    <type id="highway.footway" priority="1" numLanes="1" speed="2.78" allow="pedestrian" oneway="1" width="2.00"/>
    <type id="highway.ford" priority="1" numLanes="1" speed="2.78" allow="army" oneway="0"/>
    <type id="highway.living_street" priority="2" numLanes="1" speed="2.78" disallow="tram rail_urban rail rail_electric rail_fast ship" oneway="0"/>
    <type id="highway.motorway" priority="14" numLanes="2" speed="39.44" allow="private emergency authority army vip passenger hov taxi bus coach delivery truck trailer motorcycle evehicle custom1 custom2" oneway="1"/>
    <type id="highway.motorway_link" priority="9" numLanes="1" speed="22.22" allow="private emergency authority army vip passenger hov taxi bus coach delivery truck trailer motorcycle evehicle custom1 custom2" oneway="1"/>
    <type id="highway.path" priority="1" numLanes="1" speed="5.56" allow="pedestrian bicycle" oneway="0" width="2.00"/>
    <type id="highway.pedestrian" priority="1" numLanes="1" speed="2.78" allow="pedestrian" oneway="1" width="2.00"/>
    <type id="highway.primary" priority="12" numLanes="2" speed="27.78" disallow="tram rail_urban rail rail_electric rail_fast ship" oneway="0"/>
    <type id="highway.primary_link" priority="7" numLanes="1" speed="22.22" disallow="tram rail_urban rail rail_electric rail_fast ship" oneway="0"/>
    <type id="highway.raceway" priority="15" numLanes="2" speed="83.33" allow="vip" oneway="0"/>
    <type id="highway.residential" priority="3" numLanes="1" speed="13.89" disallow="tram rail_urban rail rail_electric rail_fast ship" oneway="0"/>
    <type id="highway.secondary" priority="11" numLanes="1" speed="27.78" disallow="tram rail_urban rail rail_electric rail_fast ship" oneway="0"/>
    <type id="highway.secondary_link" priority="6" numLanes="1" speed="22.22" disallow="tram rail_urban rail rail_electric rail_fast ship" oneway="0"/>
    <type id="highway.service" priority="1" numLanes="1" speed="5.56" allow="pedestrian delivery bicycle" oneway="0"/>
    <type id="highway.stairs" priority="1" numLanes="1" speed="1.39" allow="pedestrian" oneway="1" width="2.00"/>
    <type id="highway.step" priority="1" numLanes="1" speed="1.39" allow="pedestrian" oneway="1" width="2.00"/>
    <type id="highway.steps" priority="1" numLanes="1" speed="1.39" allow="pedestrian" oneway="1" width="2.00"/>
    <type id="highway.tertiary" priority="10" numLanes="1" speed="22.22" disallow="tram rail_urban rail rail_electric rail_fast ship" oneway="0"/>
    <type id="highway.tertiary_link" priority="5" numLanes="1" speed="22.22" disallow="tram rail_urban rail rail_electric rail_fast ship" oneway="0"/>
    <type id="highway.track" priority="1" numLanes="1" speed="5.56" allow="pedestrian motorcycle moped bicycle" oneway="0"/>
    <type id="highway.trunk" priority="13" numLanes="2" speed="27.78" disallow="pedestrian bicycle tram rail_urban rail rail_electric rail_fast ship" oneway="0"/>
    <type id="highway.trunk_link" priority="8" numLanes="1" speed="22.22" disallow="pedestrian bicycle tram rail_urban rail rail_electric rail_fast ship" oneway="0"/>
    <type id="highway.unclassified" priority="4" numLanes="1" speed="13.89" disallow="tram rail_urban rail rail_electric rail_fast ship" oneway="0"/>
    <type id="highway.unsurfaced" priority="1" numLanes="1" speed="8.33" disallow="tram rail_urban rail rail_electric rail_fast ship" oneway="0"/>
    <type id="railway.highspeed" priority="21" numLanes="1" speed="69.44" allow="rail_fast" oneway="1"/>
    <type id="railway.light_rail" priority="19" numLanes="1" speed="27.78" allow="rail_urban" oneway="1"/>
    <type id="railway.preserved" priority="16" numLanes="1" speed="27.78" allow="rail" oneway="1"/>
    <type id="railway.rail" priority="20" numLanes="1" speed="44.44" allow="rail" oneway="1"/>
    <type id="railway.subway" priority="18" numLanes="1" speed="27.78" allow="rail_urban" oneway="1"/>
    <type id="railway.tram" priority="17" numLanes="1" speed="13.89" allow="tram" oneway="1"/>

    <edge id=":133662042_0" function="internal">
        <lane id=":133662042_0_0" index="0" allow="private emergency authority army vip passenger hov taxi bus coach delivery truck trailer motorcycle evehicle custom1 custom2" speed="23.61" length="11.95" shape="605.38,771.81 608.79,773.15 611.01,774.34 613.16,775.70 616.37,777.52"/>
        <lane id=":133662042_0_1" index="1" allow="private emergency authority army vip passenger hov taxi bus coach delivery truck trailer motorcycle evehicle custom1 custom2" speed="23.61" length="11.95" shape="604.33,774.83 607.62,776.12 609.74,777.28 611.81,778.60 614.89,780.35"/>
        <lane id=":133662042_0_2" index="2" allow="private emergency authority army vip passenger hov taxi bus coach delivery truck trailer motorcycle evehicle custom1 custom2" speed="23.61" length="11.95" shape="603.29,777.86 606.44,779.10 608.48,780.23 610.45,781.50 613.41,783.19"/>
    </edge>
    <edge id=":133662042_3" function="internal">
        <lane id=":133662042_3_0" index="0" allow="private emergency authority army vip passenger hov taxi bus coach delivery truck trailer motorcycle evehicle custom1 custom2" speed="15.25" length="10.51" shape="602.25,780.88 605.21,781.86 607.24,782.67 608.99,783.89 611.13,786.10"/>
        <lane id=":133662042_3_1" index="1" allow="private emergency authority army vip passenger hov taxi bus coach delivery truck trailer motorcycle evehicle custom1 custom2" speed="14.02" length="8.85" shape="601.21,783.91 603.71,784.72 605.43,785.37 606.92,786.37 608.73,788.21"/>
        <lane id=":133662042_3_2" index="2" allow="private emergency authority army vip passenger hov taxi bus coach delivery truck trailer motorcycle evehicle custom1 custom2" speed="12.67" length="7.19" shape="600.16,786.93 602.21,787.58 603.62,788.07 604.85,788.85 606.33,790.33"/>
    </edge>
    <edge id=":133745525_0" function="internal">
        <lane id=":133745525_0_0" index="0" allow="private emergency authority army vip passenger hov taxi bus coach delivery truck trailer motorcycle evehicle custom1 custom2" speed="22.22" length="19.73" shape="1257.99,544.78 1258.60,538.85 1257.90,534.71 1256.96,530.55 1256.84,524.51"/>
        <lane id=":133745525_0_1" index="1" allow="private emergency authority army vip passenger hov taxi bus coach delivery truck trailer motorcycle evehicle custom1 custom2" speed="22.22" length="19.73" shape="1261.37,544.29 1261.92,538.58 1261.17,534.61 1260.18,530.60 1260.03,524.78"/>
        <lane id=":133745525_0_2" index="2" allow="private emergency authority army vip passenger hov taxi bus coach delivery truck trailer motorcycle evehicle custom1 custom2" speed="22.22" length="19.73" shape="1264.75,543.81 1265.24,538.32 1264.43,534.50 1263.40,530.65 1263.22,525.06"/>
    </edge>
    <edge id=":133745525_3" function="internal">
        <lane id=":133745525_3_0" index="0" allow="private emergency authority army vip passenger hov taxi bus coach delivery truck trailer motorcycle evehicle custom1 custom2" speed="18.05" length="17.14" shape="1268.53,542.98 1267.46,537.78 1266.62,534.20 1266.20,530.60 1266.41,525.34"/>
        <lane id=":133745525_3_1" index="1" allow="private emergency authority army vip passenger hov taxi bus coach delivery truck trailer motorcycle evehicle custom1 custom2" speed="18.05" length="17.14" shape="1271.58,541.79 1270.58,537.01 1269.80,533.73 1269.41,530.44 1269.60,525.61"/>
    </edge>
    <edge id=":135078865_0" function="internal">
        <lane id=":135078865_0_0" index="0" allow="private emergency authority army vip passenger hov taxi bus coach delivery truck trailer motorcycle evehicle custom1 custom2" speed="22.22" length="17.09" shape="667.95,740.18 663.35,738.50 660.24,737.21 657.07,736.11 652.33,734.99"/>
        <lane id=":135078865_0_1" index="1" allow="private emergency authority army vip passenger hov taxi bus coach delivery truck trailer motorcycle evehicle custom1 custom2" speed="22.22" length="17.09" shape="668.95,737.14 664.24,735.43 661.05,734.11 657.81,732.99 652.94,731.85"/>
        <lane id=":135078865_0_2" index="2" allow="private emergency authority army vip passenger hov taxi bus coach delivery truck trailer motorcycle evehicle custom1 custom2" speed="22.22" length="17.09" shape="669.95,734.10 665.13,732.35 661.86,731.02 658.54,729.87 653.56,728.71"/>
        <lane id=":135078865_0_3" index="3" allow="private emergency authority army vip passenger hov taxi bus coach delivery truck trailer motorcycle evehicle custom1 custom2" speed="22.22" length="17.09" shape="670.96,731.06 666.01,729.28 662.67,727.92 659.27,726.76 654.18,725.57"/>
    </edge>
    <edge id=":135078865_4" function="internal">
        <lane id=":135078865_4_0" index="0" allow="private emergency authority army vip passenger hov taxi bus coach delivery truck trailer motorcycle evehicle custom1 custom2" speed="18.05" length="17.57" shape="671.56,727.50 668.04,726.90 664.53,725.56 660.34,723.92 654.79,722.43"/>
    </edge>
    <edge id=":135081038_0" function="internal">
        <lane id=":135081038_0_0" index="0" allow="private emergency authority army vip passenger hov taxi bus coach delivery truck trailer motorcycle evehicle custom1 custom2" speed="22.22" length="8.14" shape="407.47,705.44 405.13,705.57 403.56,706.05 401.98,706.57 399.64,706.80"/>
        <lane id=":135081038_0_1" index="1" allow="private emergency authority army vip passenger hov taxi bus coach delivery truck trailer motorcycle evehicle custom1 custom2" speed="22.22" length="8.14" shape="407.64,702.24 405.26,702.37 403.65,702.85 402.05,703.37 399.66,703.60"/>
        <lane id=":135081038_0_2" index="2" allow="private emergency authority army vip passenger hov taxi bus coach delivery truck trailer motorcycle evehicle custom1 custom2" speed="22.22" length="8.14" shape="407.81,699.05 405.38,699.17 403.75,699.65 402.11,700.17 399.69,700.40"/>
    </edge>
    <edge id=":14061945-AddedOnRampNode_0" function="internal">
        <lane id=":14061945-AddedOnRampNode_0_0" index="0" allow="private emergency authority army vip passenger hov taxi bus coach delivery truck trailer motorcycle evehicle custom1 custom2" speed="22.22" length="8.00" shape="1268.33,429.14 1269.02,421.17"/>
        <lane id=":14061945-AddedOnRampNode_0_1" index="1" allow="private emergency authority army vip passenger hov taxi bus coach delivery truck trailer motorcycle evehicle custom1 custom2" speed="22.22" length="8.00" shape="1271.51,429.42 1272.21,421.45"/>
        <lane id=":14061945-AddedOnRampNode_0_2" index="2" allow="private emergency authority army vip passenger hov taxi bus coach delivery truck trailer motorcycle evehicle custom1 custom2" speed="22.22" length="8.00" shape="1274.70,429.70 1275.40,421.73"/>
        <lane id=":14061945-AddedOnRampNode_0_3" index="3" allow="private emergency authority army vip passenger hov taxi bus coach delivery truck trailer motorcycle evehicle custom1 custom2" speed="22.22" length="8.00" shape="1277.89,429.97 1278.59,422.00"/>
    </edge>
    <edge id=":148981867_0" function="internal">
        <lane id=":148981867_0_0" index="0" allow="private emergency authority army vip passenger hov taxi bus coach delivery truck trailer motorcycle evehicle custom1 custom2" speed="23.61" length="3.12" shape="179.73,730.48 176.28,730.78"/>
        <lane id=":148981867_0_1" index="1" allow="private emergency authority army vip passenger hov taxi bus coach delivery truck trailer motorcycle evehicle custom1 custom2" speed="23.61" length="3.12" shape="179.20,727.32 176.09,727.58"/>
        <lane id=":148981867_0_2" index="2" allow="private emergency authority army vip passenger hov taxi bus coach delivery truck trailer motorcycle evehicle custom1 custom2" speed="23.61" length="3.12" shape="178.67,724.16 175.91,724.39"/>
    </edge>
    <edge id=":148981867_3" function="internal">
        <lane id=":148981867_3_0" index="0" allow="private emergency authority army vip passenger hov taxi bus coach delivery truck trailer motorcycle evehicle custom1 custom2" speed="23.61" length="2.07" shape="178.13,720.93 177.42,721.05 176.94,721.11 176.45,721.15 175.73,721.19"/>
        <lane id=":148981867_3_1" index="1" allow="private emergency authority army vip passenger hov taxi bus coach delivery truck trailer motorcycle evehicle custom1 custom2" speed="23.61" length="2.07" shape="177.61,717.78 177.00,717.87 176.58,717.93 176.16,717.96 175.55,718.00"/>
        <lane id=":148981867_3_2" index="2" allow="private emergency authority army vip passenger hov taxi bus coach delivery truck trailer motorcycle evehicle custom1 custom2" speed="23.61" length="2.07" shape="177.08,714.62 176.58,714.70 176.23,714.75 175.88,714.77 175.37,714.80"/>
    </edge>
    <edge id=":148992624_0" function="internal">
        <lane id=":148992624_0_0" index="0" allow="private emergency authority army vip passenger hov taxi bus coach delivery truck trailer motorcycle evehicle custom1 custom2" speed="22.22" length="8.73" shape="799.54,854.40 802.07,854.22 803.66,852.44 805.27,850.56 807.88,850.10"/>
        <lane id=":148992624_0_1" index="1" allow="private emergency authority army vip passenger hov taxi bus coach delivery truck trailer motorcycle evehicle custom1 custom2" speed="22.22" length="8.73" shape="799.54,854.40 801.75,854.63 803.33,853.97 804.92,853.24 807.20,853.23"/>
        <lane id=":148992624_0_2" index="2" allow="private emergency authority army vip passenger hov taxi bus coach delivery truck trailer motorcycle evehicle custom1 custom2" speed="22.22" length="8.73" shape="798.51,857.43 800.82,857.69 802.47,857.06 804.14,856.34 806.52,856.35"/>
        <lane id=":148992624_0_3" index="3" allow="private emergency authority army vip passenger hov taxi bus coach delivery truck trailer motorcycle evehicle custom1 custom2" speed="22.22" length="8.73" shape="797.48,860.46 799.89,860.75 801.61,860.14 803.36,859.45 805.84,859.48"/>
    </edge>
    <edge id=":148997064_0" function="internal">
        <lane id=":148997064_0_0" index="0" allow="private emergency authority army vip passenger hov taxi bus coach delivery truck trailer motorcycle evehicle custom1 custom2" speed="13.89" length="8.14" shape="1098.79,724.81 1097.14,726.50 1096.30,727.93 1095.48,729.39 1093.90,731.15"/>
        <lane id=":148997064_0_1" index="1" allow="private emergency authority army vip passenger hov taxi bus coach delivery truck trailer motorcycle evehicle custom1 custom2" speed="13.89" length="8.14" shape="1096.76,722.34 1095.07,724.06 1094.21,725.51 1093.37,726.99 1091.75,728.78"/>
    </edge>
    <edge id=":148997082_0" function="internal">
        <lane id=":148997082_0_0" index="0" allow="private emergency authority army vip passenger hov taxi bus coach delivery truck trailer motorcycle evehicle custom1 custom2" speed="13.89" length="0.29" shape="1018.65,806.73 1018.62,806.76 1018.60,806.79 1018.58,806.81 1018.56,806.85"/>
        <lane id=":148997082_0_1" index="1" allow="private emergency authority army vip passenger hov taxi bus coach delivery truck trailer motorcycle evehicle custom1 custom2" speed="13.89" length="0.29" shape="1016.14,804.74 1016.06,804.84 1016.00,804.92 1015.95,804.99 1015.88,805.10"/>
    </edge>
    <edge id=":1531189538_0" function="internal">
        <lane id=":1531189538_0_0" index="0" disallow="tram rail_urban rail rail_electric rail_fast ship" speed="16.66" length="0.33" shape="936.26,1358.04 936.23,1358.08 936.22,1358.11 936.20,1358.14 936.18,1358.19"/>
        <lane id=":1531189538_0_1" index="1" disallow="tram rail_urban rail rail_electric rail_fast ship" speed="16.66" length="0.33" shape="933.47,1356.47 933.40,1356.60 933.35,1356.69 933.31,1356.78 933.25,1356.91"/>
    </edge>
    <edge id=":1747994845_0" function="internal">
        <lane id=":1747994845_0_0" index="0" allow="private emergency authority army vip passenger hov taxi bus coach delivery truck trailer motorcycle evehicle custom1 custom2" speed="25.00" length="4.90" shape="807.88,885.84 809.33,886.68 810.27,887.34 811.13,888.12 812.36,889.27"/>
        <lane id=":1747994845_0_1" index="1" allow="private emergency authority army vip passenger hov taxi bus coach delivery truck trailer motorcycle evehicle custom1 custom2" speed="25.00" length="4.90" shape="806.34,888.64 807.59,889.37 808.40,889.96 809.14,890.63 810.20,891.62"/>
        <lane id=":1747994845_0_2" index="2" allow="private emergency authority army vip passenger hov taxi bus coach delivery truck trailer motorcycle evehicle custom1 custom2" speed="25.00" length="4.90" shape="804.80,891.45 805.85,892.07 806.53,892.57 807.14,893.14 808.04,893.98"/>
    </edge>
    <edge id=":1747994845_3" function="internal">
        <lane id=":1747994845_3_0" index="0" allow="private emergency authority army vip passenger hov taxi bus coach delivery truck trailer motorcycle evehicle custom1 custom2" speed="19.45" length="3.37" shape="803.26,894.25 804.13,894.74 804.71,895.11 805.24,895.56 805.95,896.26"/>
    </edge>
    <edge id=":1781550568_0" function="internal">
        <lane id=":1781550568_0_0" index="0" allow="private emergency authority army vip passenger hov taxi bus coach delivery truck trailer motorcycle evehicle custom1 custom2" speed="13.89" length="13.98" shape="1189.98,635.82 1188.89,638.94 1188.72,642.03 1188.22,645.32 1186.16,649.04"/>
    </edge>
    <edge id=":1781550568_1" function="internal">
        <lane id=":1781550568_1_0" index="0" allow="private emergency authority army vip passenger hov taxi bus coach delivery truck trailer motorcycle evehicle custom1 custom2" speed="13.89" length="12.78" shape="1186.12,634.12 1185.73,637.44 1185.92,640.46 1185.60,643.53 1183.67,647.03"/>
        <lane id=":1781550568_1_1" index="1" allow="private emergency authority army vip passenger hov taxi bus coach delivery truck trailer motorcycle evehicle custom1 custom2" speed="13.89" length="12.78" shape="1186.12,634.12 1185.29,637.19 1184.54,639.62 1183.35,642.02 1181.19,645.01"/>
    </edge>
    <edge id=":1781710554_0" function="internal">
        <lane id=":1781710554_0_0" index="0" allow="private emergency authority army vip passenger hov taxi bus coach delivery truck trailer motorcycle evehicle custom1 custom2" speed="16.48" length="7.24" shape="1119.52,1100.44 1116.98,1099.26 1115.24,1098.37 1113.75,1097.18 1111.94,1095.08"/>
        <lane id=":1781710554_0_1" index="1" allow="private emergency authority army vip passenger hov taxi bus coach delivery truck trailer motorcycle evehicle custom1 custom2" speed="15.17" length="7.24" shape="1120.92,1097.56 1118.77,1096.58 1117.28,1095.85 1116.00,1094.87 1114.47,1093.11"/>
        <lane id=":1781710554_0_2" index="2" allow="private emergency authority army vip passenger hov taxi bus coach delivery truck trailer motorcycle evehicle custom1 custom2" speed="13.74" length="7.24" shape="1122.32,1094.68 1120.55,1093.89 1119.31,1093.33 1118.25,1092.56 1116.99,1091.14"/>
        <lane id=":1781710554_0_3" index="3" allow="private emergency authority army vip passenger hov taxi bus coach delivery truck trailer motorcycle evehicle custom1 custom2" speed="12.14" length="7.24" shape="1123.72,1091.80 1122.33,1091.21 1121.35,1090.81 1120.50,1090.26 1119.51,1089.17"/>
    </edge>
    <edge id=":1781710554_4" function="internal">
        <lane id=":1781710554_4_0" index="0" allow="private emergency authority army vip passenger hov taxi bus coach delivery truck trailer motorcycle evehicle custom1 custom2" speed="10.39" length="5.68" shape="1125.12,1088.92 1123.63,1088.16 1122.67,1087.49 1121.90,1086.61 1120.99,1085.20"/>
        <lane id=":1781710554_4_1" index="1" allow="private emergency authority army vip passenger hov taxi bus coach delivery truck trailer motorcycle evehicle custom1 custom2" speed="8.65" length="3.86" shape="1126.51,1086.05 1125.50,1085.53 1124.85,1085.07 1124.33,1084.47 1123.71,1083.52"/>
    </edge>
    <edge id=":1781710557_0" function="internal">
        <lane id=":1781710557_0_0" index="0" allow="private emergency authority army vip passenger hov taxi bus coach delivery truck trailer motorcycle evehicle custom1 custom2" speed="25.00" length="8.45" shape="1554.06,1202.05 1562.58,1202.64"/>
        <lane id=":1781710557_0_1" index="1" allow="private emergency authority army vip passenger hov taxi bus coach delivery truck trailer motorcycle evehicle custom1 custom2" speed="25.00" length="8.45" shape="1553.93,1205.24 1562.35,1205.83"/>
        <lane id=":1781710557_0_2" index="2" allow="private emergency authority army vip passenger hov taxi bus coach delivery truck trailer motorcycle evehicle custom1 custom2" speed="25.00" length="8.45" shape="1553.79,1208.44 1562.13,1209.02"/>
    </edge>
    <edge id=":1781710557_3" function="internal">
        <lane id=":1781710557_3_0" index="0" allow="private emergency authority army vip passenger hov taxi bus coach delivery truck trailer motorcycle evehicle custom1 custom2" speed="19.45" length="8.70" shape="1553.65,1211.64 1556.23,1211.78 1557.98,1211.98 1559.72,1212.35 1562.22,1212.97"/>
        <lane id=":1781710557_3_1" index="1" allow="private emergency authority army vip passenger hov taxi bus coach delivery truck trailer motorcycle evehicle custom1 custom2" speed="19.45" length="7.03" shape="1553.52,1214.83 1555.60,1214.93 1557.03,1215.07 1558.43,1215.34 1560.46,1215.83"/>
    </edge>
    <edge id=":1781710559_0" function="internal">
        <lane id=":1781710559_0_0" index="0" allow="private emergency authority army vip passenger hov taxi bus coach delivery truck trailer motorcycle evehicle custom1 custom2" speed="13.89" length="46.97" shape="1425.25,1158.83 1378.95,1150.87"/>
    </edge>
    <edge id=":1781710559_1" function="internal">
        <lane id=":1781710559_1_0" index="0" allow="private emergency authority army vip passenger hov taxi bus coach delivery truck trailer motorcycle evehicle custom1 custom2" speed="13.89" length="46.89" shape="1425.25,1158.83 1415.32,1156.68 1402.39,1153.38 1389.48,1149.90 1379.67,1147.25"/>
        <lane id=":1781710559_1_1" index="1" allow="private emergency authority army vip passenger hov taxi bus coach delivery truck trailer motorcycle evehicle custom1 custom2" speed="13.89" length="46.89" shape="1425.77,1155.67 1415.90,1153.54 1403.06,1150.25 1390.25,1146.80 1380.48,1144.16"/>
    </edge>
    <edge id=":1781710564_0" function="internal">
        <lane id=":1781710564_0_0" index="0" allow="private emergency authority army vip passenger hov taxi bus coach delivery truck trailer motorcycle evehicle custom1 custom2" speed="13.89" length="14.01" shape="1400.74,1224.98 1404.73,1226.09 1407.54,1226.49 1410.41,1226.65 1414.55,1227.04"/>
        <lane id=":1781710564_0_1" index="1" allow="private emergency authority army vip passenger hov taxi bus coach delivery truck trailer motorcycle evehicle custom1 custom2" speed="13.89" length="14.62" shape="1399.75,1228.02 1403.90,1229.19 1406.84,1229.62 1409.83,1229.80 1414.15,1230.21"/>
    </edge>
    <edge id=":1781710564_2" function="internal">
        <lane id=":1781710564_2_0" index="0" allow="private emergency authority army vip passenger hov taxi bus coach delivery truck trailer motorcycle evehicle custom1 custom2" speed="13.89" length="14.79" shape="1398.76,1231.06 1403.33,1232.18 1406.90,1232.53 1410.03,1232.80 1413.28,1233.65"/>
    </edge>
    <edge id=":2083586060_0" function="internal">
        <lane id=":2083586060_0_0" index="0" allow="private emergency authority army vip passenger hov taxi bus coach delivery truck trailer motorcycle evehicle custom1 custom2" speed="13.89" length="29.40" shape="986.42,1279.19 981.92,1284.90 977.09,1290.03 972.38,1295.24 968.26,1301.19"/>
        <lane id=":2083586060_0_1" index="1" allow="private emergency authority army vip passenger hov taxi bus coach delivery truck trailer motorcycle evehicle custom1 custom2" speed="13.89" length="29.40" shape="984.56,1276.22 979.91,1282.15 974.76,1287.76 969.74,1293.45 965.47,1299.62"/>
    </edge>
    <edge id=":2083586060_2" function="internal">
        <lane id=":2083586060_2_0" index="0" allow="private emergency authority army vip passenger hov taxi bus coach delivery truck trailer motorcycle evehicle custom1 custom2" speed="13.89" length="30.65" shape="981.98,1273.79 965.47,1299.62"/>
    </edge>
    <edge id=":349482668-AddedOffRampNode_0" function="internal">
        <lane id=":349482668-AddedOffRampNode_0_0" index="0" allow="private emergency authority army vip passenger hov taxi bus coach delivery truck trailer motorcycle evehicle custom1 custom2" speed="25.00" length="8.13" shape="1211.78,1138.02 1209.31,1137.58 1207.48,1138.04 1205.64,1138.50 1203.17,1138.06"/>
        <lane id=":349482668-AddedOffRampNode_0_1" index="1" allow="private emergency authority army vip passenger hov taxi bus coach delivery truck trailer motorcycle evehicle custom1 custom2" speed="25.00" length="8.13" shape="1211.78,1138.02 1204.34,1135.08"/>
        <lane id=":349482668-AddedOffRampNode_0_2" index="2" allow="private emergency authority army vip passenger hov taxi bus coach delivery truck trailer motorcycle evehicle custom1 custom2" speed="25.00" length="8.13" shape="1212.96,1135.04 1205.51,1132.10"/>
        <lane id=":349482668-AddedOffRampNode_0_3" index="3" allow="private emergency authority army vip passenger hov taxi bus coach delivery truck trailer motorcycle evehicle custom1 custom2" speed="25.00" length="8.13" shape="1214.13,1132.07 1206.69,1129.13"/>
        <lane id=":349482668-AddedOffRampNode_0_4" index="4" allow="private emergency authority army vip passenger hov taxi bus coach delivery truck trailer motorcycle evehicle custom1 custom2" speed="25.00" length="8.13" shape="1215.30,1129.09 1207.86,1126.15"/>
        <lane id=":349482668-AddedOffRampNode_0_5" index="5" allow="private emergency authority army vip passenger hov taxi bus coach delivery truck trailer motorcycle evehicle custom1 custom2" speed="25.00" length="8.13" shape="1216.47,1126.11 1209.03,1123.17"/>
    </edge>
    <edge id=":3553412166_0" function="internal">
        <lane id=":3553412166_0_0" index="0" allow="private emergency authority army vip passenger hov taxi bus coach delivery truck trailer motorcycle evehicle custom1 custom2" speed="13.89" length="13.81" shape="1213.86,726.54 1215.49,723.68 1216.76,721.08 1218.11,718.12 1219.95,714.16"/>
    </edge>
    <edge id=":3553412166_1" function="internal">
        <lane id=":3553412166_1_0" index="0" allow="private emergency authority army vip passenger hov taxi bus coach delivery truck trailer motorcycle evehicle custom1 custom2" speed="13.89" length="5.67" shape="1221.52,721.01 1221.72,719.33 1221.87,718.18 1222.17,717.07 1222.83,715.54"/>
    </edge>
    <edge id=":3553412167_0" function="internal">
        <lane id=":3553412167_0_0" index="0" allow="private emergency authority army vip passenger hov taxi bus coach delivery truck trailer motorcycle evehicle custom1 custom2" speed="13.89" length="36.09" shape="1233.52,714.47 1247.16,681.05"/>
    </edge>
    <edge id=":3553412167_1" function="internal">
        <lane id=":3553412167_1_0" index="0" allow="private emergency authority army vip passenger hov taxi bus coach delivery truck trailer motorcycle evehicle custom1 custom2" speed="13.89" length="36.03" shape="1237.15,715.81 1239.33,707.63 1241.80,698.31 1244.45,689.06 1247.16,681.05"/>
        <lane id=":3553412167_1_1" index="1" allow="private emergency authority army vip passenger hov taxi bus coach delivery truck trailer motorcycle evehicle custom1 custom2" speed="13.89" length="36.03" shape="1240.24,716.66 1242.40,708.52 1244.83,699.32 1247.45,690.17 1250.14,682.21"/>
    </edge>
    <edge id=":3553412176_0" function="internal">
        <lane id=":3553412176_0_0" index="0" allow="private emergency authority army vip passenger hov taxi bus coach delivery truck trailer motorcycle evehicle custom1 custom2" speed="13.89" length="11.41" shape="1216.76,880.27 1215.95,876.88 1215.40,874.45 1214.79,872.18 1213.76,869.27"/>
    </edge>
    <edge id=":3553412176_1" function="internal">