<?xml version="1.0" encoding="UTF-8"?>

<!-- generated on 2023-07-19 16:17:12 by Eclipse SUMO netconvert Version 1.17.0
<configuration xmlns:xsi="http://www.w3.org/2001/XMLSchema-instance" xsi:noNamespaceSchemaLocation="http://sumo.dlr.de/xsd/netconvertConfiguration.xsd">

    <input>
        <sumo-net-file value="osm.net.xml.gz"/>
    </input>

    <output>
        <output-file value="osm.net.xml"/>
        <output.street-names value="true"/>
    </output>

    <processing>
        <geometry.min-radius.fix.railways value="false"/>
        <geometry.max-grade.fix value="false"/>
        <offset.disable-normalization value="true"/>
        <lefthand value="1"/>
    </processing>

    <junctions>
        <no-turnarounds value="true"/>
        <junctions.corner-detail value="5"/>
        <junctions.limit-turn-speed value="5.50"/>
        <rectangular-lane-cut value="0"/>
    </junctions>

    <pedestrian>
        <walkingareas value="0"/>
    </pedestrian>

</configuration>
-->

<net version="1.16" junctionCornerDetail="5" lefthand="true" limitTurnSpeed="5.50" xmlns:xsi="http://www.w3.org/2001/XMLSchema-instance" xsi:noNamespaceSchemaLocation="http://sumo.dlr.de/xsd/net_file.xsd">

    <location netOffset="-361424.47,-147454.47" convBoundary="0.00,0.00,937.85,509.46" origBoundary="103.754418,1.333751,103.762849,1.338355" projParameter="+proj=utm +zone=48 +ellps=WGS84 +datum=WGS84 +units=m +no_defs"/>

    <type id="highway.bridleway" priority="1" numLanes="1" speed="2.78" allow="pedestrian" oneway="1" width="2.00"/>
    <type id="highway.bus_guideway" priority="1" numLanes="1" speed="27.78" allow="bus" oneway="1"/>
    <type id="highway.cycleway" priority="1" numLanes="1" speed="5.56" allow="bicycle" oneway="0" width="1.00"/>
    <type id="highway.footway" priority="1" numLanes="1" speed="2.78" allow="pedestrian" oneway="1" width="2.00"/>
    <type id="highway.ford" priority="1" numLanes="1" speed="2.78" allow="army" oneway="0"/>
    <type id="highway.living_street" priority="2" numLanes="1" speed="2.78" disallow="tram rail_urban rail rail_electric rail_fast ship" oneway="0"/>
    <type id="highway.motorway" priority="14" numLanes="2" speed="39.44" allow="private emergency authority army vip passenger hov taxi bus coach delivery truck trailer motorcycle evehicle custom1 custom2" oneway="1"/>
    <type id="highway.motorway_link" priority="9" numLanes="1" speed="22.22" allow="private emergency authority army vip passenger hov taxi bus coach delivery truck trailer motorcycle evehicle custom1 custom2" oneway="1"/>
    <type id="highway.path" priority="1" numLanes="1" speed="5.56" allow="pedestrian bicycle" oneway="0" width="2.00"/>
    <type id="highway.pedestrian" priority="1" numLanes="1" speed="2.78" allow="pedestrian" oneway="1" width="2.00"/>
    <type id="highway.primary" priority="12" numLanes="2" speed="27.78" disallow="tram rail_urban rail rail_electric rail_fast ship" oneway="0"/>
    <type id="highway.primary_link" priority="7" numLanes="1" speed="22.22" disallow="tram rail_urban rail rail_electric rail_fast ship" oneway="0"/>
    <type id="highway.raceway" priority="15" numLanes="2" speed="83.33" allow="vip" oneway="0"/>
    <type id="highway.residential" priority="3" numLanes="1" speed="13.89" disallow="tram rail_urban rail rail_electric rail_fast ship" oneway="0"/>
    <type id="highway.secondary" priority="11" numLanes="1" speed="27.78" disallow="tram rail_urban rail rail_electric rail_fast ship" oneway="0"/>
    <type id="highway.secondary_link" priority="6" numLanes="1" speed="22.22" disallow="tram rail_urban rail rail_electric rail_fast ship" oneway="0"/>
    <type id="highway.service" priority="1" numLanes="1" speed="5.56" allow="pedestrian delivery bicycle" oneway="0"/>
    <type id="highway.stairs" priority="1" numLanes="1" speed="1.39" allow="pedestrian" oneway="1" width="2.00"/>
    <type id="highway.step" priority="1" numLanes="1" speed="1.39" allow="pedestrian" oneway="1" width="2.00"/>
    <type id="highway.steps" priority="1" numLanes="1" speed="1.39" allow="pedestrian" oneway="1" width="2.00"/>
    <type id="highway.tertiary" priority="10" numLanes="1" speed="22.22" disallow="tram rail_urban rail rail_electric rail_fast ship" oneway="0"/>
    <type id="highway.tertiary_link" priority="5" numLanes="1" speed="22.22" disallow="tram rail_urban rail rail_electric rail_fast ship" oneway="0"/>
    <type id="highway.track" priority="1" numLanes="1" speed="5.56" allow="pedestrian motorcycle moped bicycle" oneway="0"/>
    <type id="highway.trunk" priority="13" numLanes="2" speed="27.78" disallow="pedestrian bicycle tram rail_urban rail rail_electric rail_fast ship" oneway="0"/>
    <type id="highway.trunk_link" priority="8" numLanes="1" speed="22.22" disallow="pedestrian bicycle tram rail_urban rail rail_electric rail_fast ship" oneway="0"/>
    <type id="highway.unclassified" priority="4" numLanes="1" speed="13.89" disallow="tram rail_urban rail rail_electric rail_fast ship" oneway="0"/>
    <type id="highway.unsurfaced" priority="1" numLanes="1" speed="8.33" disallow="tram rail_urban rail rail_electric rail_fast ship" oneway="0"/>
    <type id="railway.highspeed" priority="21" numLanes="1" speed="69.44" allow="rail_fast" oneway="1"/>
    <type id="railway.light_rail" priority="19" numLanes="1" speed="27.78" allow="rail_urban" oneway="1"/>
    <type id="railway.preserved" priority="16" numLanes="1" speed="27.78" allow="rail" oneway="1"/>
    <type id="railway.rail" priority="20" numLanes="1" speed="44.44" allow="rail" oneway="1"/>
    <type id="railway.subway" priority="18" numLanes="1" speed="27.78" allow="rail_urban" oneway="1"/>
    <type id="railway.tram" priority="17" numLanes="1" speed="13.89" allow="tram" oneway="1"/>

    <edge id=":1221460131_0" function="internal">
        <lane id=":1221460131_0_0" index="0" allow="private emergency authority army vip passenger hov taxi bus coach delivery truck trailer motorcycle evehicle custom1 custom2" speed="25.00" length="3.19" shape="183.87,397.48 181.07,399.09"/>
        <lane id=":1221460131_0_1" index="1" allow="private emergency authority army vip passenger hov taxi bus coach delivery truck trailer motorcycle evehicle custom1 custom2" speed="25.00" length="3.19" shape="185.46,400.26 182.69,401.85"/>
        <lane id=":1221460131_0_2" index="2" allow="private emergency authority army vip passenger hov taxi bus coach delivery truck trailer motorcycle evehicle custom1 custom2" speed="25.00" length="3.19" shape="187.04,403.03 184.32,404.60"/>
    </edge>
    <edge id=":1221460131_3" function="internal">
        <lane id=":1221460131_3_0" index="0" allow="private emergency authority army vip passenger hov taxi bus coach delivery truck trailer motorcycle evehicle custom1 custom2" speed="19.45" length="3.29" shape="182.44,394.97 181.52,395.31 180.90,395.56 180.30,395.85 179.45,396.33"/>
    </edge>
    <edge id=":1221460139_0" function="internal">
        <lane id=":1221460139_0_0" index="0" allow="private emergency authority army vip passenger hov taxi bus coach delivery truck trailer motorcycle evehicle custom1 custom2" speed="13.89" length="16.54" shape="527.28,149.47 525.20,152.27 522.61,154.63 519.33,157.20 515.19,160.63"/>
    </edge>
    <edge id=":1221460139_1" function="internal">
        <lane id=":1221460139_1_0" index="0" allow="private emergency authority army vip passenger hov taxi bus coach delivery truck trailer motorcycle evehicle custom1 custom2" speed="13.89" length="11.27" shape="526.54,157.33 522.91,157.59 520.33,157.78 518.01,158.57 515.19,160.63"/>
        <lane id=":1221460139_1_1" index="1" allow="private emergency authority army vip passenger hov taxi bus coach delivery truck trailer motorcycle evehicle custom1 custom2" speed="13.12" length="11.27" shape="527.03,160.50 523.93,160.68 521.71,160.75 519.71,161.32 517.30,163.04"/>
    </edge>
    <edge id=":1492179329_0" function="internal">
        <lane id=":1492179329_0_0" index="0" allow="private emergency authority army vip passenger hov taxi bus coach delivery truck trailer motorcycle evehicle custom1 custom2" speed="13.89" length="9.03" shape="702.19,178.29 704.00,176.34 705.48,175.22 706.97,174.13 708.83,172.21"/>
    </edge>
    <edge id=":1492179329_1" function="internal">
        <lane id=":1492179329_1_0" index="0" allow="private emergency authority army vip passenger hov taxi bus coach delivery truck trailer motorcycle evehicle custom1 custom2" speed="13.89" length="8.75" shape="699.70,175.77 701.80,174.25 703.28,173.23 704.63,172.09 706.36,170.17"/>
    </edge>
    <edge id=":1492179345_0" function="internal">
        <lane id=":1492179345_0_0" index="0" allow="private emergency authority army vip passenger hov taxi bus coach delivery truck trailer motorcycle evehicle custom1 custom2" speed="13.89" length="7.49" shape="505.69,280.96 507.83,280.72 509.33,280.98 510.83,281.32 513.01,281.33"/>
        <lane id=":1492179345_0_1" index="1" allow="private emergency authority army vip passenger hov taxi bus coach delivery truck trailer motorcycle evehicle custom1 custom2" speed="13.89" length="7.49" shape="505.69,280.96 507.80,280.21 509.15,279.38 510.52,278.64 512.67,278.15"/>
    </edge>
    <edge id=":244134692_0" function="internal">
        <lane id=":244134692_0_0" index="0" disallow="tram rail_urban rail rail_electric rail_fast ship" speed="18.05" length="0.29" shape="581.62,186.97 581.70,187.21"/>
        <lane id=":244134692_0_1" index="1" disallow="tram rail_urban rail rail_electric rail_fast ship" speed="18.05" length="0.29" shape="584.65,185.94 584.75,186.22"/>
        <lane id=":244134692_0_2" index="2" disallow="tram rail_urban rail rail_electric rail_fast ship" speed="18.05" length="0.29" shape="587.68,184.92 587.79,185.23"/>
    </edge>
    <edge id=":3740792534_0" function="internal">
        <lane id=":3740792534_0_0" index="0" allow="private emergency authority army vip passenger hov taxi bus coach delivery truck trailer motorcycle evehicle custom1 custom2" speed="13.89" length="0.45" shape="533.00,250.83 533.06,250.80 533.10,250.78 533.14,250.77 533.20,250.74"/>
        <lane id=":3740792534_0_1" index="1" allow="private emergency authority army vip passenger hov taxi bus coach delivery truck trailer motorcycle evehicle custom1 custom2" speed="13.89" length="0.45" shape="531.52,247.99 531.70,247.90 531.83,247.84 531.95,247.79 532.14,247.73"/>
    </edge>
    <edge id=":44819830#1-AddedOnRampNode_0" function="internal">
        <lane id=":44819830#1-AddedOnRampNode_0_0" index="0" allow="private emergency authority army vip passenger hov taxi bus coach delivery truck trailer motorcycle evehicle custom1 custom2" speed="25.00" length="8.00" shape="99.34,447.22 92.45,451.28"/>
        <lane id=":44819830#1-AddedOnRampNode_0_1" index="1" allow="private emergency authority army vip passenger hov taxi bus coach delivery truck trailer motorcycle evehicle custom1 custom2" speed="25.00" length="8.00" shape="100.97,449.98 94.07,454.04"/>
        <lane id=":44819830#1-AddedOnRampNode_0_2" index="2" allow="private emergency authority army vip passenger hov taxi bus coach delivery truck trailer motorcycle evehicle custom1 custom2" speed="25.00" length="8.00" shape="102.59,452.74 95.70,456.80"/>
    </edge>
    <edge id=":5171643248_0" function="internal">
        <lane id=":5171643248_0_0" index="0" disallow="tram rail_urban rail rail_electric rail_fast ship" speed="3.65" length="4.67" shape="445.54,74.49 444.44,73.56 443.56,73.39 442.90,74.00 442.46,75.37"/>
    </edge>
    <edge id=":568256148_0" function="internal">
        <lane id=":568256148_0_0" index="0" disallow="tram rail_urban rail rail_electric rail_fast ship" speed="18.05" length="0.36" shape="598.70,180.00 598.56,179.55"/>
        <lane id=":568256148_0_1" index="1" disallow="tram rail_urban rail rail_electric rail_fast ship" speed="18.05" length="0.36" shape="595.63,180.90 595.52,180.56"/>
        <lane id=":568256148_0_2" index="2" disallow="tram rail_urban rail rail_electric rail_fast ship" speed="18.05" length="0.36" shape="592.56,181.80 592.49,181.57"/>
    </edge>
    <edge id=":568265824_0" function="internal">
        <lane id=":568265824_0_0" index="0" allow="private emergency authority army vip passenger hov taxi bus coach delivery truck trailer motorcycle evehicle custom1 custom2" speed="13.89" length="8.16" shape="463.04,291.63 465.16,290.51 466.73,290.01 468.39,289.71 470.76,289.22"/>
    </edge>
    <edge id=":568265824_1" function="internal">
        <lane id=":568265824_1_0" index="0" allow="private emergency authority army vip passenger hov taxi bus coach delivery truck trailer motorcycle evehicle custom1 custom2" speed="13.89" length="8.56" shape="461.40,288.88 463.69,287.80 465.40,287.38 467.11,286.97 469.39,285.88"/>
        <lane id=":568265824_1_1" index="1" allow="private emergency authority army vip passenger hov taxi bus coach delivery truck trailer motorcycle evehicle custom1 custom2" speed="13.89" length="8.56" shape="459.77,286.12 462.05,285.05 463.76,284.64 465.47,284.22 467.74,283.13"/>
    </edge>
    <edge id=":568265825_0" function="internal">
        <lane id=":568265825_0_0" index="0" allow="private emergency authority army vip passenger hov taxi bus coach delivery truck trailer motorcycle evehicle custom1 custom2" speed="13.89" length="28.26" shape="527.22,279.78 555.34,277.06"/>
    </edge>
    <edge id=":568265825_1" function="internal">
        <lane id=":568265825_1_0" index="0" allow="private emergency authority army vip passenger hov taxi bus coach delivery truck trailer motorcycle evehicle custom1 custom2" speed="13.89" length="20.19" shape="527.22,279.78 533.09,278.92 537.00,277.70 540.65,275.69 545.74,272.52"/>
        <lane id=":568265825_1_1" index="1" allow="private emergency authority army vip passenger hov taxi bus coach delivery truck trailer motorcycle evehicle custom1 custom2" speed="13.89" length="19.09" shape="526.87,276.60 532.42,275.77 536.10,274.57 539.54,272.64 544.34,269.62"/>
    </edge>
    <edge id=":568265826_0" function="internal">
        <lane id=":568265826_0_0" index="0" allow="private emergency authority army vip passenger hov taxi bus coach delivery truck trailer motorcycle evehicle custom1 custom2" speed="14.46" length="13.97" shape="611.41,289.40 614.27,291.23 616.68,293.07 618.74,295.59 620.58,299.47"/>
    </edge>
    <edge id=":568265826_1" function="internal">
        <lane id=":568265826_1_0" index="0" disallow="tram rail_urban rail rail_electric rail_fast ship" speed="16.67" length="13.87" shape="616.00,286.32 620.58,299.47"/>
        <lane id=":568265826_1_1" index="1" disallow="tram rail_urban rail rail_electric rail_fast ship" speed="16.67" length="13.87" shape="619.02,285.26 623.58,298.36"/>
        <lane id=":568265826_1_2" index="2" disallow="tram rail_urban rail rail_electric rail_fast ship" speed="16.67" length="13.87" shape="622.04,284.19 626.58,297.25"/>
    </edge>
    <edge id=":5979452352_0" function="internal">
        <lane id=":5979452352_0_0" index="0" disallow="tram rail_urban rail rail_electric rail_fast ship" speed="16.67" length="8.21" shape="635.53,283.83 634.90,281.50 634.83,279.81 634.77,278.12 634.14,275.80"/>
        <lane id=":5979452352_0_1" index="1" disallow="tram rail_urban rail rail_electric rail_fast ship" speed="16.67" length="8.21" shape="632.55,284.99 631.92,282.66 631.85,280.97 631.78,279.28 631.15,276.95"/>
        <lane id=":5979452352_0_2" index="2" disallow="tram rail_urban rail rail_electric rail_fast ship" speed="16.67" length="8.21" shape="629.57,286.15 628.93,283.82 628.86,282.13 628.80,280.43 628.17,278.10"/>
        <lane id=":5979452352_0_3" index="3" disallow="tram rail_urban rail rail_electric rail_fast ship" speed="16.67" length="8.21" shape="629.57,286.15 628.47,284.00 627.37,282.70 626.28,281.41 625.18,279.26"/>
    </edge>
    <edge id=":6596320638_0" function="internal">
        <lane id=":6596320638_0_0" index="0" allow="private emergency authority army vip passenger hov taxi bus coach delivery truck trailer motorcycle evehicle custom1 custom2" speed="13.89" length="8.21" shape="473.57,203.27 471.61,204.67 470.05,205.33 468.49,205.98 466.54,207.39"/>
    </edge>
    <edge id=":6931233530_0" function="internal">
        <lane id=":6931233530_0_0" index="0" allow="private emergency authority army vip passenger hov taxi bus coach delivery truck trailer motorcycle evehicle custom1 custom2" speed="25.00" length="8.21" shape="685.85,118.90 683.64,119.85 681.97,120.16 680.30,120.46 678.09,121.41"/>
        <lane id=":6931233530_0_1" index="1" allow="private emergency authority army vip passenger hov taxi bus coach delivery truck trailer motorcycle evehicle custom1 custom2" speed="25.00" length="8.21" shape="687.41,121.70 685.20,122.65 683.53,122.95 681.86,123.25 679.65,124.21"/>
        <lane id=":6931233530_0_2" index="2" allow="private emergency authority army vip passenger hov taxi bus coach delivery truck trailer motorcycle evehicle custom1 custom2" speed="25.00" length="8.21" shape="688.97,124.49 686.76,125.44 685.09,125.74 683.43,126.04 681.22,127.00"/>
    </edge>
    <edge id=":cluster_1492179336_568265833_0" function="internal">
        <lane id=":cluster_1492179336_568265833_0_0" index="0" disallow="tram rail_urban rail rail_electric rail_fast ship" speed="16.67" length="15.28" shape="610.63,212.22 608.85,208.06 607.23,205.37 605.68,202.67 604.11,198.44"/>
        <lane id=":cluster_1492179336_568265833_0_1" index="1" disallow="tram rail_urban rail rail_electric rail_fast ship" speed="16.67" length="15.28" shape="607.61,213.28 605.83,209.13 604.21,206.45 602.66,203.74 601.09,199.52"/>
        <lane id=":cluster_1492179336_568265833_0_2" index="2" disallow="tram rail_urban rail rail_electric rail_fast ship" speed="16.67" length="15.28" shape="604.60,214.34 602.82,210.20 601.19,207.52 599.64,204.82 598.07,200.60"/>
    </edge>
    <edge id=":cluster_1492179336_568265833_3" function="internal">
        <lane id=":cluster_1492179336_568265833_3_0" index="0" allow="private emergency authority army vip passenger hov taxi bus coach delivery truck trailer motorcycle evehicle custom1 custom2" speed="13.36" length="33.77" shape="585.56,217.17 590.29,210.53 596.70,206.45 604.77,204.93 614.52,205.97"/>
    </edge>
    <edge id=":cluster_1492179336_568265833_4" function="internal">
        <lane id=":cluster_1492179336_568265833_4_0" index="0" allow="private emergency authority army vip passenger hov taxi bus coach delivery truck trailer motorcycle evehicle custom1 custom2" speed="13.08" length="23.77" shape="583.38,214.79 590.85,207.16 596.29,202.07 599.70,199.52 601.09,199.52"/>
        <lane id=":cluster_1492179336_568265833_4_1" index="1" allow="private emergency authority army vip passenger hov taxi bus coach delivery truck trailer motorcycle evehicle custom1 custom2" speed="12.15" length="20.45" shape="583.38,214.79 586.01,212.40 591.09,207.78 595.99,203.12 598.07,200.60"/>
    </edge>
    <edge id=":cluster_1492179336_568265833_6" function="internal">
        <lane id=":cluster_1492179336_568265833_6_0" index="0" disallow="tram rail_urban rail rail_electric rail_fast ship" speed="16.67" length="15.08" shape="587.30,204.47 592.20,218.71"/>
        <lane id=":cluster_1492179336_568265833_6_1" index="1" disallow="tram rail_urban rail rail_electric rail_fast ship" speed="16.67" length="15.08" shape="590.32,203.39 595.22,217.64"/>
        <lane id=":cluster_1492179336_568265833_6_2" index="2" disallow="tram rail_urban rail rail_electric rail_fast ship" speed="16.67" length="15.08" shape="593.33,202.31 598.24,216.58"/>
    </edge>
    <edge id=":cluster_1492179336_568265833_9" function="internal">
        <lane id=":cluster_1492179336_568265833_9_0" index="0" allow="private emergency authority army vip passenger hov taxi bus coach delivery truck trailer motorcycle evehicle custom1 custom2" speed="12.52" length="21.57" shape="593.33,202.31 594.52,202.14 598.45,202.69 605.12,203.97 614.52,205.97"/>
    </edge>
    <edge id=":cluster_1492179336_568265833_10" function="internal">
        <lane id=":cluster_1492179336_568265833_10_0" index="0" disallow="tram rail_urban rail rail_electric rail_fast ship" speed="4.31" length="7.36" shape="593.33,202.31 595.15,203.66 596.55,203.83 597.52,202.81 598.07,200.60"/>
    </edge>
    <edge id=":cluster_568265843_568265844_0" function="internal">
        <lane id=":cluster_568265843_568265844_0_0" index="0" allow="private emergency authority army vip passenger hov taxi bus coach delivery truck trailer motorcycle evehicle custom1 custom2" speed="13.19" length="35.15" shape="592.01,144.09 585.29,153.37 578.75,159.39 572.38,162.15 566.19,161.65"/>
        <lane id=":cluster_568265843_568265844_0_1" index="1" allow="private emergency authority army vip passenger hov taxi bus coach delivery truck trailer motorcycle evehicle custom1 custom2" speed="12.82" length="35.15" shape="594.67,145.87 586.81,156.95 579.61,163.97 573.07,166.92 567.18,165.81"/>
    </edge>
    <edge id=":cluster_568265843_568265844_2" function="internal">
        <lane id=":cluster_568265843_568265844_2_0" index="0" allow="private emergency authority army vip passenger hov taxi bus coach delivery truck trailer motorcycle evehicle custom1 custom2" speed="16.17" length="27.90" shape="597.33,147.66 578.78,168.50"/>
        <lane id=":cluster_568265843_568265844_2_1" index="1" allow="private emergency authority army vip passenger hov taxi bus coach delivery truck trailer motorcycle evehicle custom1 custom2" speed="15.38" length="25.22" shape="597.33,147.66 581.84,167.56"/>
    </edge>
    <edge id=":cluster_568265843_568265844_4" function="internal">
        <lane id=":cluster_568265843_568265844_4_0" index="0" disallow="tram rail_urban rail rail_electric rail_fast ship" speed="19.44" length="21.75" shape="593.37,163.97 585.67,143.41"/>
        <lane id=":cluster_568265843_568265844_4_1" index="1" disallow="tram rail_urban rail rail_electric rail_fast ship" speed="19.44" length="21.75" shape="590.31,164.92 582.68,144.56"/>
        <lane id=":cluster_568265843_568265844_4_2" index="2" disallow="tram rail_urban rail rail_electric rail_fast ship" speed="19.44" length="21.75" shape="587.25,165.87 579.69,145.70"/>
    </edge>
    <edge id=":cluster_568265843_568265844_7" function="internal">
        <lane id=":cluster_568265843_568265844_7_0" index="0" allow="private emergency authority army vip passenger hov taxi bus coach delivery truck trailer motorcycle evehicle custom1 custom2" speed="16.66" length="22.21" shape="587.25,165.87 583.88,162.58 579.18,164.15 573.50,166.57 567.18,165.81"/>
    </edge>
    <edge id=":cluster_568265843_568265844_8" function="internal">
        <lane id=":cluster_568265843_568265844_8_0" index="0" disallow="tram rail_urban rail rail_electric rail_fast ship" speed="4.53" length="8.28" shape="587.25,165.87 585.27,164.26 583.70,164.01 582.56,165.10 581.84,167.56"/>
    </edge>
    <edge id=":cluster_568265843_568265844_9" function="internal">
        <lane id=":cluster_568265843_568265844_9_0" index="0" disallow="tram rail_urban rail rail_electric rail_fast ship" speed="19.44" length="21.01" shape="567.40,150.38 575.73,169.45"/>
        <lane id=":cluster_568265843_568265844_9_1" index="1" disallow="tram rail_urban rail rail_electric rail_fast ship" speed="19.44" length="21.01" shape="570.39,149.24 578.78,168.50"/>
        <lane id=":cluster_568265843_568265844_9_2" index="2" disallow="tram rail_urban rail rail_electric rail_fast ship" speed="19.44" length="21.01" shape="573.38,148.10 581.84,167.56"/>
    </edge>

    <edge id="-160530747" from="5233314782" to="5171643248" name="Toh Guan Road East" priority="10" type="highway.tertiary" shape="414.39,149.12 423.72,142.17 435.47,130.68 442.80,119.10 446.27,107.23 447.58,97.61 447.11,85.85 444.00,74.93">
        <lane id="-160530747_0" index="0" disallow="tram rail_urban rail rail_electric rail_fast ship" speed="13.89" length="88.91" shape="415.35,150.40 424.76,143.39 436.72,131.69 444.27,119.77 447.84,107.56 449.18,97.69 448.70,85.60 445.54,74.49">
            <param key="origId" value="160530747"/>
        </lane>
    </edge>
    <edge id="106091351" from="1221460152" to="1221460139" priority="9" type="highway.motorway_link" spreadType="center" shape="541.94,72.48 544.98,100.98 544.56,112.59 543.38,118.49 540.63,125.69 537.18,132.52 524.78,153.75 518.07,160.23">
        <lane id="106091351_0" index="0" allow="private emergency authority army vip passenger hov taxi bus coach delivery truck trailer motorcycle evehicle custom1 custom2" speed="13.89" length="81.28" shape="541.94,72.48 544.98,100.98 544.56,112.59 543.38,118.49 540.63,125.69 537.18,132.52 527.28,149.47">
            <param key="origId" value="106091351"/>
        </lane>
    </edge>
    <edge id="135956125#0" from="cluster_568265843_568265844" to="1221460139" name="Toh Tuck Avenue" priority="9" type="highway.motorway_link" spreadType="center" shape="576.62,161.53 567.97,164.42 565.88,163.24 562.87,162.19 552.74,159.50 543.46,158.29 532.71,158.21 525.89,159.02 518.07,160.23">
        <lane id="135956125#0_0" index="0" allow="private emergency authority army vip passenger hov taxi bus coach delivery truck trailer motorcycle evehicle custom1 custom2" speed="13.89" length="40.69" shape="566.19,161.65 563.34,160.66 553.05,157.93 543.57,156.69 532.62,156.61 526.54,157.33">
            <param key="origId" value="135956125"/>
        </lane>
        <lane id="135956125#0_1" index="1" allow="private emergency authority army vip passenger hov taxi bus coach delivery truck trailer motorcycle evehicle custom1 custom2" speed="13.89" length="40.69" shape="567.18,165.81 565.22,164.70 562.40,163.72 552.43,161.07 543.35,159.89 532.80,159.81 527.03,160.50">
            <param key="origId" value="135956125"/>
        </lane>
        <param key="origFrom" value="568265844"/>
    </edge>
    <edge id="135956129#0" from="568265825" to="cluster_1492179336_568265833" priority="9" type="highway.motorway_link" spreadType="center" shape="531.57,277.70 544.04,271.68 551.06,267.38 557.77,261.56 566.33,251.54 573.80,238.51 580.01,224.70 582.70,219.36 584.27,216.17 587.94,212.32 592.04,208.61">
        <lane id="135956129#0_0" index="0" allow="private emergency authority army vip passenger hov taxi bus coach delivery truck trailer motorcycle evehicle custom1 custom2" speed="13.89" length="69.10" shape="545.74,272.52 552.01,268.68 558.91,262.69 567.64,252.47 575.23,239.24 581.45,225.39 584.13,220.07 585.56,217.17">
            <param key="origId" value="135956129"/>
        </lane>
        <lane id="135956129#0_1" index="1" allow="private emergency authority army vip passenger hov taxi bus coach delivery truck trailer motorcycle evehicle custom1 custom2" speed="13.89" length="69.10" shape="544.34,269.62 550.11,266.08 556.63,260.43 565.02,250.61 572.37,237.78 578.57,224.01 581.27,218.65 582.94,215.24 583.38,214.79">
            <param key="origId" value="135956129"/>
        </lane>
        <param key="origTo" value="1492179336"/>
    </edge>
    <edge id="135956133" from="1492179353" to="1492179329" priority="9" type="highway.motorway_link" spreadType="center" shape="644.51,315.68 645.00,304.34 643.31,281.07 645.29,264.76 648.00,256.73 652.55,246.72 664.00,229.68 675.40,212.41 711.04,167.03">
        <lane id="135956133_0" index="0" allow="private emergency authority army vip passenger hov taxi bus coach delivery truck trailer motorcycle evehicle custom1 custom2" speed="13.89" length="136.56" shape="644.47,297.08 643.31,281.07 645.29,264.76 648.00,256.73 652.55,246.72 664.00,229.68 675.40,212.41 702.19,178.29">
            <param key="origId" value="135956133"/>
        </lane>
    </edge>
    <edge id="160530747" from="5171643248" to="5233314782" name="Toh Guan Road East" priority="10" type="highway.tertiary" shape="444.00,74.93 447.11,85.85 447.58,97.61 446.27,107.23 442.80,119.10 435.47,130.68 423.72,142.17 414.39,149.12">
        <lane id="160530747_0" index="0" disallow="tram rail_urban rail rail_electric rail_fast ship" speed="13.89" length="85.03" shape="442.46,75.37 445.52,86.10 445.98,97.53 444.70,106.90 441.33,118.43 434.22,129.67 422.68,140.95 413.43,147.84">
            <param key="origId" value="160530747"/>
        </lane>
    </edge>
    <edge id="173767599" from="1492179353" to="5979452352" name="Bukit Batok East Avenue 3" priority="12" type="highway.primary" spreadType="center">
        <lane id="173767599_0" index="0" disallow="tram rail_urban rail rail_electric rail_fast ship" speed="16.67" length="14.88" shape="640.94,297.69 635.53,283.83">
            <param key="origId" value="173767599"/>
        </lane>
        <lane id="173767599_1" index="1" disallow="tram rail_urban rail rail_electric rail_fast ship" speed="16.67" length="14.88" shape="637.96,298.86 632.55,284.99">
            <param key="origId" value="173767599"/>
        </lane>
        <lane id="173767599_2" index="2" disallow="tram rail_urban rail rail_electric rail_fast ship" speed="16.67" length="14.88" shape="634.97,300.02 629.57,286.15">
            <param key="origId" value="173767599"/>
        </lane>
    </edge>
    <edge id="173768000" from="1492179329" to="1492179317" priority="9" type="highway.motorway_link" spreadType="center" shape="711.04,167.03 720.65,155.43 731.62,143.74 745.65,132.85 764.93,120.26 814.36,89.89">
        <lane id="173768000_0" index="0" allow="private emergency authority army vip passenger hov taxi bus coach delivery truck trailer motorcycle evehicle custom1 custom2" speed="13.89" length="135.30" shape="708.83,172.21 721.85,156.49 732.70,144.93 746.58,134.15 765.79,121.61 815.20,91.25">