<?xml version="1.0" encoding="UTF-8"?>

<!-- generated on 2023-07-18 14:16:34 by Eclipse SUMO netconvert Version 1.17.0
<configuration xmlns:xsi="http://www.w3.org/2001/XMLSchema-instance" xsi:noNamespaceSchemaLocation="http://sumo.dlr.de/xsd/netconvertConfiguration.xsd">

    <input>
        <sumo-net-file value="osm.net.xml.gz"/>
    </input>

    <output>
        <output-file value="osm.net.xml"/>
        <output.street-names value="true"/>
    </output>

    <processing>
        <geometry.min-radius.fix.railways value="false"/>
        <geometry.max-grade.fix value="false"/>
        <offset.disable-normalization value="true"/>
        <lefthand value="1"/>
    </processing>

    <junctions>
        <no-turnarounds value="true"/>
        <junctions.corner-detail value="5"/>
        <junctions.limit-turn-speed value="5.50"/>
        <rectangular-lane-cut value="0"/>
    </junctions>

    <pedestrian>
        <walkingareas value="0"/>
    </pedestrian>

</configuration>
-->

<net version="1.16" junctionCornerDetail="5" lefthand="true" limitTurnSpeed="5.50" xmlns:xsi="http://www.w3.org/2001/XMLSchema-instance" xsi:noNamespaceSchemaLocation="http://sumo.dlr.de/xsd/net_file.xsd">

    <location netOffset="-379520.19,-147053.54" convBoundary="0.00,0.00,1380.59,594.91" origBoundary="103.917053,1.330200,103.929459,1.335584" projParameter="+proj=utm +zone=48 +ellps=WGS84 +datum=WGS84 +units=m +no_defs"/>

    <type id="highway.bridleway" priority="1" numLanes="1" speed="2.78" allow="pedestrian" oneway="1" width="2.00"/>
    <type id="highway.bus_guideway" priority="1" numLanes="1" speed="27.78" allow="bus" oneway="1"/>
    <type id="highway.cycleway" priority="1" numLanes="1" speed="5.56" allow="bicycle" oneway="0" width="1.00"/>
    <type id="highway.footway" priority="1" numLanes="1" speed="2.78" allow="pedestrian" oneway="1" width="2.00"/>
    <type id="highway.ford" priority="1" numLanes="1" speed="2.78" allow="army" oneway="0"/>
    <type id="highway.living_street" priority="2" numLanes="1" speed="2.78" disallow="tram rail_urban rail rail_electric rail_fast ship" oneway="0"/>
    <type id="highway.motorway" priority="14" numLanes="2" speed="39.44" allow="private emergency authority army vip passenger hov taxi bus coach delivery truck trailer motorcycle evehicle custom1 custom2" oneway="1"/>
    <type id="highway.motorway_link" priority="9" numLanes="1" speed="22.22" allow="private emergency authority army vip passenger hov taxi bus coach delivery truck trailer motorcycle evehicle custom1 custom2" oneway="1"/>
    <type id="highway.path" priority="1" numLanes="1" speed="5.56" allow="pedestrian bicycle" oneway="0" width="2.00"/>
    <type id="highway.pedestrian" priority="1" numLanes="1" speed="2.78" allow="pedestrian" oneway="1" width="2.00"/>
    <type id="highway.primary" priority="12" numLanes="2" speed="27.78" disallow="tram rail_urban rail rail_electric rail_fast ship" oneway="0"/>
    <type id="highway.primary_link" priority="7" numLanes="1" speed="22.22" disallow="tram rail_urban rail rail_electric rail_fast ship" oneway="0"/>
    <type id="highway.raceway" priority="15" numLanes="2" speed="83.33" allow="vip" oneway="0"/>
    <type id="highway.residential" priority="3" numLanes="1" speed="13.89" disallow="tram rail_urban rail rail_electric rail_fast ship" oneway="0"/>
    <type id="highway.secondary" priority="11" numLanes="1" speed="27.78" disallow="tram rail_urban rail rail_electric rail_fast ship" oneway="0"/>
    <type id="highway.secondary_link" priority="6" numLanes="1" speed="22.22" disallow="tram rail_urban rail rail_electric rail_fast ship" oneway="0"/>
    <type id="highway.service" priority="1" numLanes="1" speed="5.56" allow="pedestrian delivery bicycle" oneway="0"/>
    <type id="highway.stairs" priority="1" numLanes="1" speed="1.39" allow="pedestrian" oneway="1" width="2.00"/>
    <type id="highway.step" priority="1" numLanes="1" speed="1.39" allow="pedestrian" oneway="1" width="2.00"/>
    <type id="highway.steps" priority="1" numLanes="1" speed="1.39" allow="pedestrian" oneway="1" width="2.00"/>
    <type id="highway.tertiary" priority="10" numLanes="1" speed="22.22" disallow="tram rail_urban rail rail_electric rail_fast ship" oneway="0"/>
    <type id="highway.tertiary_link" priority="5" numLanes="1" speed="22.22" disallow="tram rail_urban rail rail_electric rail_fast ship" oneway="0"/>
    <type id="highway.track" priority="1" numLanes="1" speed="5.56" allow="pedestrian motorcycle moped bicycle" oneway="0"/>
    <type id="highway.trunk" priority="13" numLanes="2" speed="27.78" disallow="pedestrian bicycle tram rail_urban rail rail_electric rail_fast ship" oneway="0"/>
    <type id="highway.trunk_link" priority="8" numLanes="1" speed="22.22" disallow="pedestrian bicycle tram rail_urban rail rail_electric rail_fast ship" oneway="0"/>
    <type id="highway.unclassified" priority="4" numLanes="1" speed="13.89" disallow="tram rail_urban rail rail_electric rail_fast ship" oneway="0"/>
    <type id="highway.unsurfaced" priority="1" numLanes="1" speed="8.33" disallow="tram rail_urban rail rail_electric rail_fast ship" oneway="0"/>
    <type id="railway.highspeed" priority="21" numLanes="1" speed="69.44" allow="rail_fast" oneway="1"/>
    <type id="railway.light_rail" priority="19" numLanes="1" speed="27.78" allow="rail_urban" oneway="1"/>
    <type id="railway.preserved" priority="16" numLanes="1" speed="27.78" allow="rail" oneway="1"/>
    <type id="railway.rail" priority="20" numLanes="1" speed="44.44" allow="rail" oneway="1"/>
    <type id="railway.subway" priority="18" numLanes="1" speed="27.78" allow="rail_urban" oneway="1"/>
    <type id="railway.tram" priority="17" numLanes="1" speed="13.89" allow="tram" oneway="1"/>

    <edge id=":1726612429_0" function="internal">
        <lane id=":1726612429_0_0" index="0" allow="private emergency authority army vip passenger hov taxi bus coach delivery truck trailer motorcycle evehicle custom1 custom2" speed="13.89" length="0.21" shape="376.28,342.12 376.55,342.29"/>
        <lane id=":1726612429_0_1" index="1" allow="private emergency authority army vip passenger hov taxi bus coach delivery truck trailer motorcycle evehicle custom1 custom2" speed="13.89" length="0.21" shape="378.02,339.44 378.12,339.50"/>
    </edge>
    <edge id=":243508440_0" function="internal">
        <lane id=":243508440_0_0" index="0" allow="private emergency authority army vip passenger hov taxi bus coach delivery truck trailer motorcycle evehicle custom1 custom2" speed="15.28" length="11.92" shape="313.06,199.15 314.89,195.99 316.49,193.89 318.15,192.05 320.19,189.65"/>
    </edge>
    <edge id=":243508440_1" function="internal">
        <lane id=":243508440_1_0" index="0" disallow="tram rail_urban rail rail_electric rail_fast ship" speed="16.67" length="12.17" shape="310.22,197.67 312.08,194.59 313.66,192.68 315.30,190.80 317.34,187.83"/>
        <lane id=":243508440_1_1" index="1" disallow="tram rail_urban rail rail_electric rail_fast ship" speed="16.67" length="12.17" shape="307.39,196.19 309.24,193.12 310.81,191.20 312.45,189.33 314.49,186.35"/>
    </edge>
    <edge id=":243674147_0" function="internal">
        <lane id=":243674147_0_0" index="0" disallow="tram rail_urban rail rail_electric rail_fast ship" speed="16.67" length="8.20" shape="267.86,288.37 269.15,286.32 270.35,285.12 271.54,283.91 272.79,281.84"/>
        <lane id=":243674147_0_1" index="1" disallow="tram rail_urban rail rail_electric rail_fast ship" speed="16.67" length="8.20" shape="267.86,288.37 268.69,286.11 268.90,284.43 269.10,282.75 269.90,280.47"/>
        <lane id=":243674147_0_2" index="2" disallow="tram rail_urban rail rail_electric rail_fast ship" speed="16.67" length="8.20" shape="264.99,286.96 265.82,284.71 266.02,283.04 266.21,281.36 267.01,279.10"/>
    </edge>
    <edge id=":570016123_0" function="internal">
        <lane id=":570016123_0_0" index="0" allow="private emergency authority army vip passenger hov taxi bus coach delivery truck trailer motorcycle evehicle custom1 custom2" speed="19.45" length="3.01" shape="310.55,241.14 307.80,239.91"/>
    </edge>
    <edge id=":570016123_1" function="internal">
        <lane id=":570016123_1_0" index="0" allow="private emergency authority army vip passenger hov taxi bus coach delivery truck trailer motorcycle evehicle custom1 custom2" speed="25.00" length="3.00" shape="309.18,244.08 306.46,242.81"/>
        <lane id=":570016123_1_1" index="1" allow="private emergency authority army vip passenger hov taxi bus coach delivery truck trailer motorcycle evehicle custom1 custom2" speed="25.00" length="3.00" shape="307.83,246.98 305.11,245.71"/>
        <lane id=":570016123_1_2" index="2" allow="private emergency authority army vip passenger hov taxi bus coach delivery truck trailer motorcycle evehicle custom1 custom2" speed="25.00" length="3.00" shape="306.48,249.88 303.76,248.61"/>
    </edge>
    <edge id=":570016163_0" function="internal">
        <lane id=":570016163_0_0" index="0" allow="private emergency authority army vip passenger hov taxi bus coach delivery truck trailer motorcycle evehicle custom1 custom2" speed="6.89" length="2.60" shape="245.33,251.59 246.01,251.95 246.51,252.17 247.03,252.25 247.78,252.20"/>
        <lane id=":570016163_0_1" index="1" allow="private emergency authority army vip passenger hov taxi bus coach delivery truck trailer motorcycle evehicle custom1 custom2" speed="19.45" length="0.68" shape="246.77,248.74 247.38,249.03"/>
    </edge>
    <edge id=":570016163_2" function="internal">
        <lane id=":570016163_2_0" index="0" allow="private emergency authority army vip passenger hov taxi bus coach delivery truck trailer motorcycle evehicle custom1 custom2" speed="25.00" length="2.75" shape="248.21,245.88 250.90,247.11"/>
        <lane id=":570016163_2_1" index="1" allow="private emergency authority army vip passenger hov taxi bus coach delivery truck trailer motorcycle evehicle custom1 custom2" speed="25.00" length="2.75" shape="249.65,243.02 252.16,244.17"/>
        <lane id=":570016163_2_2" index="2" allow="private emergency authority army vip passenger hov taxi bus coach delivery truck trailer motorcycle evehicle custom1 custom2" speed="25.00" length="2.75" shape="251.09,240.17 253.41,241.22"/>
    </edge>
    <edge id=":6095992052_0" function="internal">
        <lane id=":6095992052_0_0" index="0" allow="private emergency authority army vip passenger hov taxi bus coach delivery truck trailer motorcycle evehicle custom1 custom2" speed="25.00" length="7.84" shape="240.85,244.18 242.63,245.78 243.03,247.77 243.42,249.79 245.15,251.50"/>
        <lane id=":6095992052_0_1" index="1" allow="private emergency authority army vip passenger hov taxi bus coach delivery truck trailer motorcycle evehicle custom1 custom2" speed="25.00" length="7.84" shape="240.85,244.18 242.69,245.27 243.75,246.35 244.79,247.46 246.59,248.65"/>
        <lane id=":6095992052_0_2" index="2" allow="private emergency authority army vip passenger hov taxi bus coach delivery truck trailer motorcycle evehicle custom1 custom2" speed="25.00" length="7.84" shape="242.14,241.25 244.03,242.36 245.12,243.46 246.19,244.59 248.03,245.79"/>
        <lane id=":6095992052_0_3" index="3" allow="private emergency authority army vip passenger hov taxi bus coach delivery truck trailer motorcycle evehicle custom1 custom2" speed="25.00" length="7.84" shape="243.43,238.32 245.37,239.45 246.48,240.56 247.59,241.71 249.47,242.93"/>
        <lane id=":6095992052_0_4" index="4" allow="private emergency authority army vip passenger hov taxi bus coach delivery truck trailer motorcycle evehicle custom1 custom2" speed="25.00" length="7.84" shape="244.73,235.40 246.70,236.54 247.85,237.67 248.99,238.83 250.91,240.08"/>
    </edge>

    <edge id="160609774" from="1726612429" to="5689305537" name="Pan-Island Expressway" priority="9" type="highway.motorway_link" spreadType="center" shape="377.24,340.84 378.65,341.63 380.16,342.41 381.56,343.01 383.05,343.59 384.60,344.14 386.30,344.63 388.07,345.09 389.76,345.49 391.35,345.83 392.99,346.15 394.64,346.44 396.40,346.70 398.19,346.93 399.97,347.12 401.77,347.25 403.79,347.33 405.82,347.31 407.95,347.26 410.09,347.16 412.19,347.01 414.35,346.82 416.40,346.56 418.74,346.19 421.11,345.66 423.27,345.10 425.41,344.41 427.76,343.52 430.06,342.57 432.29,341.60 434.43,340.58 436.65,339.46 438.78,338.36 441.11,336.96 443.24,335.56 445.23,334.12 447.15,332.68 448.99,331.22 450.71,329.73 452.44,328.12 454.01,326.45 455.65,324.43 457.15,322.51 458.69,320.42 460.08,318.27 461.33,316.04 462.53,313.82 464.78,309.24 466.41,305.46 467.79,301.70 468.78,297.86 469.51,294.06 470.09,289.98 470.50,286.46 470.80,282.66 470.98,278.86 470.92,274.80 464.63,158.89 464.18,149.81 463.92,140.48 464.10,133.39 464.54,126.23 465.33,119.15 466.52,111.86 467.16,108.74 467.87,105.62 468.67,102.58 469.65,99.54 470.72,96.56 471.85,93.52 472.96,90.73 474.17,87.93 475.44,85.18 476.82,82.43 478.32,79.64 479.96,76.86 482.98,72.05 486.60,66.85 490.57,61.50 494.72,56.16 499.28,50.84 503.76,45.88 509.05,40.46 514.77,35.18 540.34,12.79 546.51,7.10 554.14,0.00">
        <lane id="160609774_0" index="0" allow="private emergency authority army vip passenger hov taxi bus coach delivery truck trailer motorcycle evehicle custom1 custom2" speed="13.89" length="399.47" shape="376.55,342.29 377.89,343.04 379.48,343.86 380.96,344.49 382.49,345.09 384.11,345.66 385.88,346.17 387.68,346.64 389.41,347.05 391.03,347.40 392.70,347.72 394.39,348.02 396.18,348.28 398.00,348.52 399.83,348.71 401.68,348.85 403.77,348.93 405.85,348.91 408.01,348.86 410.18,348.76 412.32,348.60 414.52,348.41 416.63,348.14 419.04,347.76 421.48,347.22 423.72,346.64 425.94,345.92 428.35,345.01 430.68,344.04 432.95,343.06 435.13,342.02 437.38,340.89 439.56,339.76 441.96,338.31 444.15,336.88 446.18,335.41 448.13,333.95 450.01,332.45 451.78,330.92 453.57,329.25 455.22,327.50 456.90,325.43 458.43,323.48 460.01,321.33 461.45,319.10 462.73,316.81 463.95,314.55 466.23,309.91 467.90,306.05 469.32,302.18 470.34,298.21 471.09,294.32 471.68,290.19 472.09,286.62 472.40,282.76 472.58,278.89 472.52,274.74 466.23,158.80 465.78,149.75 465.52,140.48 465.70,133.46 466.13,126.37 466.92,119.37 468.09,112.15 468.72,109.08 469.42,106.00 470.21,103.03 471.16,100.06 472.22,97.11 473.34,94.09 474.44,91.34 475.63,88.58 476.88,85.87 478.24,83.17 479.71,80.43 481.33,77.69 484.31,72.93 487.90,67.78 491.84,62.47 495.96,57.17 500.48,51.90 504.93,46.98 510.17,41.61 515.84,36.37 519.51,33.16">
            <param key="origId" value="160609774 160609776"/>
        </lane>
        <lane id="160609774_1" index="1" allow="private emergency authority army vip passenger hov taxi bus coach delivery truck trailer motorcycle evehicle custom1 custom2" speed="13.89" length="399.47" shape="378.12,339.50 379.41,340.22 380.84,340.96 382.16,341.53 383.61,342.09 385.09,342.62 386.72,343.09 388.46,343.54 390.11,343.93 391.67,344.26 393.28,344.58 394.89,344.86 396.62,345.12 398.38,345.34 400.11,345.53 401.86,345.65 403.81,345.73 405.79,345.71 407.89,345.66 410.00,345.56 412.06,345.42 414.18,345.23 416.17,344.98 418.44,344.62 420.74,344.10 422.82,343.56 424.88,342.90 427.17,342.03 429.44,341.10 431.63,340.14 433.73,339.14 435.92,338.03 438.00,336.96 440.26,335.61 442.33,334.24 444.28,332.83 446.17,331.41 447.97,329.99 449.64,328.54 451.31,326.99 452.80,325.40 454.40,323.43 455.87,321.54 457.37,319.51 458.71,317.44 459.93,315.27 461.11,313.09 463.33,308.57 464.92,304.87 466.26,301.22 467.22,297.51 467.93,293.80 468.50,289.77 468.91,286.30 469.20,282.56 469.38,278.83 469.32,274.86 463.03,158.98 462.58,149.87 462.32,140.48 462.50,133.32 462.95,126.09 463.74,118.93 464.95,111.57 465.60,108.40 466.32,105.24 467.13,102.13 468.14,99.02 469.22,96.01 470.36,92.95 471.48,90.12 472.71,87.28 474.00,84.49 475.40,81.69 476.93,78.85 478.59,76.03 481.65,71.17 485.30,65.92 489.30,60.53 493.48,55.15 498.08,49.78 502.59,44.78 507.93,39.31 513.70,33.99 517.32,30.82">
            <param key="origId" value="160609774 160609776"/>
        </lane>
    </edge>
    <edge id="44957233" from="139696656" to="570016075" priority="9" type="highway.motorway_link" spreadType="center" shape="76.48,163.19 80.94,173.74 84.48,177.63 88.88,180.63 97.46,185.63 117.36,199.47 124.05,204.50 130.23,209.52 137.40,215.98 144.04,222.55 150.68,230.17 156.40,237.90 162.77,247.07 168.41,256.31 174.69,268.86 180.31,281.69 185.17,296.18 188.93,310.93 191.23,322.97 192.92,335.32 193.67,346.99 193.58,358.58 192.37,372.38 190.64,386.30 189.09,395.26 185.97,409.55 175.96,443.90">
        <lane id="44957233_0" index="0" allow="private emergency authority army vip passenger hov taxi bus coach delivery truck trailer motorcycle evehicle custom1 custom2" speed="13.89" length="327.18" shape="76.48,163.19 80.94,173.74 84.48,177.63 88.88,180.63 97.46,185.63 117.36,199.47 124.05,204.50 130.23,209.52 137.40,215.98 144.04,222.55 150.68,230.17 156.40,237.90 162.77,247.07 168.41,256.31 174.69,268.86 180.31,281.69 185.17,296.18 188.93,310.93 191.23,322.97 192.92,335.32 193.67,346.99 193.58,358.58 192.37,372.38 190.64,386.30 189.09,395.26 185.97,409.55 175.96,443.90">
            <param key="origId" value="44957233"/>
        </lane>
    </edge>
    <edge id="44957236" from="243508440" to="570016123" name="Pan-Island Expressway" priority="9" type="highway.motorway_link" spreadType="center" shape="302.54,212.42 314.59,196.69 324.74,183.93 333.62,174.51 336.04,172.20 338.62,169.95 341.48,167.71 344.30,165.62 347.31,163.62 350.17,161.71 353.45,159.83 356.53,158.21 360.10,156.51 361.96,155.71 363.83,154.96 365.81,154.30 367.89,153.69 369.87,153.19 371.71,152.79 373.91,152.45 375.99,152.21 378.19,152.01 380.59,151.88 385.07,151.94 389.35,152.16 393.30,152.52 397.25,153.10 401.40,153.94 405.35,155.08 409.36,156.57 413.02,158.19 416.92,160.40 420.55,162.95 423.76,165.54 426.79,168.17 429.66,171.04 432.31,173.95 434.67,176.95 436.72,180.14 438.53,183.46 440.22,186.78 441.73,190.31 443.18,193.88 444.32,197.55 445.24,201.21 445.74,203.81 446.12,206.39 446.36,209.02 446.49,211.59 446.49,213.93 446.41,216.22 446.28,218.52 446.06,220.77 445.34,225.70 444.88,228.16 444.31,230.59 443.67,233.02 442.88,235.38 441.96,237.73 440.90,239.97 439.50,242.44 437.83,244.79 436.08,247.04 434.21,249.23 432.34,251.31 430.36,253.41 428.38,255.35 426.27,257.26 424.30,258.86 422.20,260.34 419.85,261.82 417.44,263.20 414.96,264.43 412.29,265.50 409.67,266.39 406.88,267.13 403.42,267.71 399.85,268.19 396.25,268.53 392.37,268.74 388.64,268.78 384.75,268.61 380.93,268.28 377.03,267.76 373.62,267.09 370.09,266.20 363.13,264.19 309.16,240.53">
        <lane id="44957236_0" index="0" allow="private emergency authority army vip passenger hov taxi bus coach delivery truck trailer motorcycle evehicle custom1 custom2" speed="13.89" length="348.56" shape="320.19,189.65 324.74,183.93 333.62,174.51 336.04,172.20 338.62,169.95 341.48,167.71 344.30,165.62 347.31,163.62 350.17,161.71 353.45,159.83 356.53,158.21 360.10,156.51 361.96,155.71 363.83,154.96 365.81,154.30 367.89,153.69 369.87,153.19 371.71,152.79 373.91,152.45 375.99,152.21 378.19,152.01 380.59,151.88 385.07,151.94 389.35,152.16 393.30,152.52 397.25,153.10 401.40,153.94 405.35,155.08 409.36,156.57 413.02,158.19 416.92,160.40 420.55,162.95 423.76,165.54 426.79,168.17 429.66,171.04 432.31,173.95 434.67,176.95 436.72,180.14 438.53,183.46 440.22,186.78 441.73,190.31 443.18,193.88 444.32,197.55 445.24,201.21 445.74,203.81 446.12,206.39 446.36,209.02 446.49,211.59 446.49,213.93 446.41,216.22 446.28,218.52 446.06,220.77 445.34,225.70 444.88,228.16 444.31,230.59 443.67,233.02 442.88,235.38 441.96,237.73 440.90,239.97 439.50,242.44 437.83,244.79 436.08,247.04 434.21,249.23 432.34,251.31 430.36,253.41 428.38,255.35 426.27,257.26 424.30,258.86 422.20,260.34 419.85,261.82 417.44,263.20 414.96,264.43 412.29,265.50 409.67,266.39 406.88,267.13 403.42,267.71 399.85,268.19 396.25,268.53 392.37,268.74 388.64,268.78 384.75,268.61 380.93,268.28 377.03,267.76 373.62,267.09 370.09,266.20 363.13,264.19 310.55,241.14">
            <param key="origId" value="44957236"/>
        </lane>
    </edge>
    <edge id="44957237" from="243508812" to="139642109" priority="9" type="highway.motorway_link" spreadType="center" shape="408.85,82.57 337.24,122.73 331.45,125.80 325.54,128.68 319.24,131.50 312.53,134.27 305.73,136.94 298.84,139.52 284.45,144.52 270.04,149.11 266.47,150.15 262.85,151.12 259.05,152.04 255.14,152.87 251.25,153.63 247.41,154.30 243.68,154.87 239.91,155.34 236.23,155.74 232.47,156.04 225.17,156.35 218.23,156.51 211.23,156.58 204.09,156.58 196.78,156.42 189.44,156.12 182.35,155.66 178.49,155.34 174.78,154.91 170.96,154.40 167.34,153.83 159.46,152.50 151.99,151.02 144.53,149.37 136.91,147.49 129.89,145.63 122.70,143.54 96.48,134.87 47.13,117.54 34.72,113.39 0.00,103.22">
        <lane id="44957237_0" index="0" allow="private emergency authority army vip passenger hov taxi bus coach delivery truck trailer motorcycle evehicle custom1 custom2" speed="13.89" length="293.20" shape="367.25,104.06 336.47,121.33 330.72,124.37 324.86,127.23 318.61,130.03 311.93,132.79 305.16,135.45 298.30,138.01 283.94,143.00 269.56,147.58 266.04,148.61 262.46,149.57 258.70,150.48 254.82,151.30 250.96,152.06 247.15,152.72 243.46,153.29 239.72,153.75 236.08,154.15 232.37,154.44 225.12,154.75 218.20,154.91 211.22,154.98 204.11,154.98 196.83,154.82 189.52,154.52 182.46,154.06 178.65,153.75 174.98,153.32 171.19,152.82 167.60,152.25 159.75,150.93 152.32,149.45 144.89,147.81 137.31,145.94 130.32,144.09 123.17,142.01 97.00,133.36 88.85,130.50">
            <param key="origId" value="44957237"/>
        </lane>
        <lane id="44957237_1" index="1" allow="private emergency authority army vip passenger hov taxi bus coach delivery truck trailer motorcycle evehicle custom1 custom2" speed="13.89" length="293.20" shape="368.82,106.86 338.01,124.13 332.18,127.23 326.22,130.13 319.87,132.97 313.13,135.75 306.30,138.43 299.38,141.03 284.96,146.04 270.52,150.64 266.90,151.69 263.24,152.67 259.40,153.60 255.46,154.44 251.54,155.20 247.67,155.88 243.90,156.45 240.10,156.93 236.38,157.33 232.57,157.64 225.22,157.95 218.26,158.11 211.24,158.18 204.07,158.18 196.73,158.02 189.36,157.72 182.24,157.26 178.33,156.93 174.58,156.50 170.73,155.98 167.08,155.41 159.17,154.07 151.66,152.59 144.17,150.93 136.51,149.04 129.46,147.17 122.23,145.07 95.96,136.38 87.95,133.57">
            <param key="origId" value="44957237"/>
        </lane>
    </edge>
    <edge id="44957240" from="570016163" to="1726612429" name="Pan Island Expressway" priority="9" type="highway.motorway_link" spreadType="center" shape="247.06,250.68 252.95,249.93 255.85,253.34 259.20,256.47 263.73,260.43 276.13,269.39 305.39,290.55 352.32,324.61 377.24,340.84">
        <lane id="44957240_0" index="0" allow="private emergency authority army vip passenger hov taxi bus coach delivery truck trailer motorcycle evehicle custom1 custom2" speed="13.89" length="159.52" shape="247.78,252.20 252.29,251.63 254.69,254.45 258.13,257.66 262.73,261.68 275.19,270.69 304.45,291.85 351.41,325.93 376.28,342.12">
            <param key="origId" value="44957240"/>
        </lane>
        <lane id="44957240_1" index="1" allow="private emergency authority army vip passenger hov taxi bus coach delivery truck trailer motorcycle evehicle custom1 custom2" speed="13.89" length="159.52" shape="247.38,249.03 253.61,248.23 257.01,252.23 260.27,255.28 264.73,259.18 277.07,268.09 306.33,289.25 353.23,323.29 378.02,339.44">
            <param key="origId" value="44957240"/>
        </lane>
    </edge>
    <edge id="44957849" from="626502534" to="570016123" name="Pan-Island Expressway" priority="14" type="highway.motorway" spreadType="center" shape="1380.59,580.47 1331.80,578.81 1255.42,575.43 1194.30,569.57 1134.72,560.30 1084.68,551.33 1050.61,544.84 1015.46,537.42 987.50,530.81 956.33,522.44 916.43,510.99 838.73,485.99 821.00,480.04 795.40,470.50 771.68,460.68 749.57,451.26 543.90,356.93 515.52,343.71 306.46,246.34">
        <lane id="44957849_0" index="0" allow="private emergency authority army vip passenger hov taxi bus coach delivery truck trailer motorcycle evehicle custom1 custom2" speed="25.00" length="1134.97" shape="1380.70,577.27 1331.93,575.61 1255.64,572.24 1194.70,566.39 1135.25,557.14 1085.26,548.18 1051.24,541.70 1016.16,534.30 988.28,527.71 957.19,519.36 917.36,507.93 839.73,482.95 822.07,477.02 796.57,467.52 772.92,457.73 750.86,448.33 545.24,354.03 516.87,340.81 309.18,244.08">
            <param key="origId" value="44957849"/>
        </lane>
        <lane id="44957849_1" index="1" allow="private emergency authority army vip passenger hov taxi bus coach delivery truck trailer motorcycle evehicle custom1 custom2" speed="25.00" length="1134.97" shape="1380.59,580.47 1331.80,578.81 1255.42,575.43 1194.30,569.57 1134.72,560.30 1084.68,551.33 1050.61,544.84 1015.46,537.42 987.50,530.81 956.33,522.44 916.43,510.99 838.73,485.99 821.00,480.04 795.40,470.50 771.68,460.68 749.57,451.26 543.90,356.93 515.52,343.71 307.83,246.98">
            <param key="origId" value="44957849"/>
        </lane>
        <lane id="44957849_2" index="2" allow="private emergency authority army vip passenger hov taxi bus coach delivery truck trailer motorcycle evehicle custom1 custom2" speed="25.00" length="1134.97" shape="1380.48,583.67 1331.67,582.01 1255.20,578.62 1193.90,572.75 1134.19,563.46 1084.10,554.48 1049.98,547.98 1014.76,540.54 986.72,533.91 955.47,525.52 915.50,514.05 837.73,489.03 819.93,483.06 794.23,473.48 770.44,463.63 748.28,454.19 542.56,359.83 514.17,346.61 306.48,249.88">
            <param key="origId" value="44957849"/>
        </lane>
        <param key="ref" value="PIE"/>
    </edge>
    <edge id="476354436" from="243674147" to="243508440" name="Bedok North Road" priority="12" type="highway.primary" spreadType="center" shape="268.19,284.08 298.94,219.33 302.54,212.42">
        <lane id="476354436_0" index="0" disallow="tram rail_urban rail rail_electric rail_fast ship" speed="16.67" length="92.11" shape="272.79,281.84 301.81,220.76 313.06,199.15">
            <param key="origId" value="476354436 22701182"/>
        </lane>
        <lane id="476354436_1" index="1" disallow="tram rail_urban rail rail_electric rail_fast ship" speed="16.67" length="92.11" shape="269.90,280.47 298.94,219.33 310.22,197.67">
            <param key="origId" value="476354436 22701182"/>
        </lane>
        <lane id="476354436_2" index="2" disallow="tram rail_urban rail rail_electric rail_fast ship" speed="16.67" length="92.11" shape="267.01,279.10 296.07,217.90 307.39,196.19">
            <param key="origId" value="476354436 22701182"/>
        </lane>
    </edge>
    <edge id="476354452" from="570016163" to="6096070114" name="Pan-Island Expressway" priority="14" type="highway.motorway" spreadType="center" shape="250.66,243.53 281.95,256.84 353.34,290.90 444.64,332.94 535.27,374.66 744.41,469.05 775.60,482.51 792.34,489.28 809.00,495.60 827.33,502.00 887.02,521.26 911.35,528.89 951.92,540.49 981.70,548.23 1010.23,554.83 1045.65,562.06 1078.52,568.12 1130.32,577.23 1191.96,587.17 1242.63,592.11 1253.94,592.96 1284.93,594.91">
        <lane id="476354452_0" index="0" allow="private emergency authority army vip passenger hov taxi bus coach delivery truck trailer motorcycle evehicle custom1 custom2" speed="25.00" length="1098.85" shape="250.90,247.11 280.63,259.76 351.98,293.80 443.30,335.85 533.94,377.57 743.12,471.98 774.37,485.46 791.17,492.26 807.90,498.61 826.31,505.03 886.05,524.31 910.43,531.96 951.08,543.58 980.94,551.34 1009.55,557.96 1045.04,565.20 1077.95,571.27 1129.79,580.39 1191.55,590.35 1242.35,595.30 1253.72,596.15 1284.73,598.10">
            <param key="origId" value="476354452 74675114"/>
        </lane>
        <lane id="476354452_1" index="1" allow="private emergency authority army vip passenger hov taxi bus coach delivery truck trailer motorcycle evehicle custom1 custom2" speed="25.00" length="1098.85" shape="252.16,244.17 281.95,256.84 353.34,290.90 444.64,332.94 535.27,374.66 744.41,469.05 775.60,482.51 792.34,489.28 809.00,495.60 827.33,502.00 887.02,521.26 911.35,528.89 951.92,540.49 981.70,548.23 1010.23,554.83 1045.65,562.06 1078.52,568.12 1130.32,577.23 1191.96,587.17 1242.63,592.11 1253.94,592.96 1284.93,594.91">
            <param key="origId" value="476354452 74675114"/>
        </lane>
        <lane id="476354452_2" index="2" allow="private emergency authority army vip passenger hov taxi bus coach delivery truck trailer motorcycle evehicle custom1 custom2" speed="25.00" length="1098.85" shape="253.41,241.22 283.27,253.92 354.70,288.00 445.98,330.03 536.60,371.75 745.70,466.12 776.83,479.56 793.51,486.30 810.10,492.59 828.35,498.97 887.99,518.21 912.27,525.82 952.76,537.40 982.46,545.12 1010.91,551.70 1046.26,558.92 1079.09,564.97 1130.85,574.07 1192.37,583.99 1242.91,588.92 1254.16,589.77 1285.13,591.72">
            <param key="origId" value="476354452 74675114"/>
        </lane>
        <param key="ref" value="PIE"/>
    </edge>
    <edge id="539042623" from="5216595477" to="243674147" name="Bedok North Road" priority="12" type="highway.primary" spreadType="center" shape="179.50,470.08 209.73,403.56 239.93,341.84 250.96,319.07 268.19,284.08">
        <lane id="539042623_0" index="0" disallow="tram rail_urban rail rail_electric rail_fast ship" speed="16.67" length="202.09" shape="180.96,470.74 211.18,404.24 241.37,342.54 252.40,319.77 267.86,288.37">
            <param key="origId" value="539042623 824425438"/>
        </lane>
        <lane id="539042623_1" index="1" disallow="tram rail_urban rail rail_electric rail_fast ship" speed="16.67" length="202.09" shape="178.04,469.42 208.28,402.88 238.49,341.14 249.52,318.37 264.99,286.96">