<?xml version="1.0" encoding="UTF-8"?>

<!-- generated on 2023-07-17 14:34:42 by Eclipse SUMO netconvert Version 1.17.0
<configuration xmlns:xsi="http://www.w3.org/2001/XMLSchema-instance" xsi:noNamespaceSchemaLocation="http://sumo.dlr.de/xsd/netconvertConfiguration.xsd">

    <input>
        <sumo-net-file value="osm.net.xml.gz"/>
    </input>

    <output>
        <output-file value="osm.net.xml"/>
        <output.street-names value="true"/>
    </output>

    <processing>
        <geometry.min-radius.fix.railways value="false"/>
        <geometry.max-grade.fix value="false"/>
        <offset.disable-normalization value="true"/>
        <lefthand value="0"/>
    </processing>

    <junctions>
        <no-turnarounds value="true"/>
        <junctions.corner-detail value="5"/>
        <junctions.limit-turn-speed value="5.50"/>
        <rectangular-lane-cut value="0"/>
    </junctions>

    <pedestrian>
        <walkingareas value="0"/>
    </pedestrian>

</configuration>
-->

<net version="1.16" junctionCornerDetail="5" limitTurnSpeed="5.50" xmlns:xsi="http://www.w3.org/2001/XMLSchema-instance" xsi:noNamespaceSchemaLocation="http://sumo.dlr.de/xsd/net_file.xsd">

    <location netOffset="-370619.78,-144921.15" convBoundary="0.00,0.00,539.41,479.29" origBoundary="103.837070,1.310875,103.841918,1.315210" projParameter="+proj=utm +zone=48 +ellps=WGS84 +datum=WGS84 +units=m +no_defs"/>

    <type id="highway.bridleway" priority="1" numLanes="1" speed="2.78" allow="pedestrian" oneway="1" width="2.00"/>
    <type id="highway.bus_guideway" priority="1" numLanes="1" speed="27.78" allow="bus" oneway="1"/>
    <type id="highway.cycleway" priority="1" numLanes="1" speed="5.56" allow="bicycle" oneway="0" width="1.00"/>
    <type id="highway.footway" priority="1" numLanes="1" speed="2.78" allow="pedestrian" oneway="1" width="2.00"/>
    <type id="highway.ford" priority="1" numLanes="1" speed="2.78" allow="army" oneway="0"/>
    <type id="highway.living_street" priority="2" numLanes="1" speed="2.78" disallow="tram rail_urban rail rail_electric rail_fast ship" oneway="0"/>
    <type id="highway.motorway" priority="14" numLanes="2" speed="39.44" allow="private emergency authority army vip passenger hov taxi bus coach delivery truck trailer motorcycle evehicle custom1 custom2" oneway="1"/>
    <type id="highway.motorway_link" priority="9" numLanes="1" speed="22.22" allow="private emergency authority army vip passenger hov taxi bus coach delivery truck trailer motorcycle evehicle custom1 custom2" oneway="1"/>
    <type id="highway.path" priority="1" numLanes="1" speed="5.56" allow="pedestrian bicycle" oneway="0" width="2.00"/>
    <type id="highway.pedestrian" priority="1" numLanes="1" speed="2.78" allow="pedestrian" oneway="1" width="2.00"/>
    <type id="highway.primary" priority="12" numLanes="2" speed="27.78" disallow="tram rail_urban rail rail_electric rail_fast ship" oneway="0"/>
    <type id="highway.primary_link" priority="7" numLanes="1" speed="22.22" disallow="tram rail_urban rail rail_electric rail_fast ship" oneway="0"/>
    <type id="highway.raceway" priority="15" numLanes="2" speed="83.33" allow="vip" oneway="0"/>
    <type id="highway.residential" priority="3" numLanes="1" speed="13.89" disallow="tram rail_urban rail rail_electric rail_fast ship" oneway="0"/>
    <type id="highway.secondary" priority="11" numLanes="1" speed="27.78" disallow="tram rail_urban rail rail_electric rail_fast ship" oneway="0"/>
    <type id="highway.secondary_link" priority="6" numLanes="1" speed="22.22" disallow="tram rail_urban rail rail_electric rail_fast ship" oneway="0"/>
    <type id="highway.service" priority="1" numLanes="1" speed="5.56" allow="pedestrian delivery bicycle" oneway="0"/>
    <type id="highway.stairs" priority="1" numLanes="1" speed="1.39" allow="pedestrian" oneway="1" width="2.00"/>
    <type id="highway.step" priority="1" numLanes="1" speed="1.39" allow="pedestrian" oneway="1" width="2.00"/>
    <type id="highway.steps" priority="1" numLanes="1" speed="1.39" allow="pedestrian" oneway="1" width="2.00"/>
    <type id="highway.tertiary" priority="10" numLanes="1" speed="22.22" disallow="tram rail_urban rail rail_electric rail_fast ship" oneway="0"/>
    <type id="highway.tertiary_link" priority="5" numLanes="1" speed="22.22" disallow="tram rail_urban rail rail_electric rail_fast ship" oneway="0"/>
    <type id="highway.track" priority="1" numLanes="1" speed="5.56" allow="pedestrian motorcycle moped bicycle" oneway="0"/>
    <type id="highway.trunk" priority="13" numLanes="2" speed="27.78" disallow="pedestrian bicycle tram rail_urban rail rail_electric rail_fast ship" oneway="0"/>
    <type id="highway.trunk_link" priority="8" numLanes="1" speed="22.22" disallow="pedestrian bicycle tram rail_urban rail rail_electric rail_fast ship" oneway="0"/>
    <type id="highway.unclassified" priority="4" numLanes="1" speed="13.89" disallow="tram rail_urban rail rail_electric rail_fast ship" oneway="0"/>
    <type id="highway.unsurfaced" priority="1" numLanes="1" speed="8.33" disallow="tram rail_urban rail rail_electric rail_fast ship" oneway="0"/>
    <type id="railway.highspeed" priority="21" numLanes="1" speed="69.44" allow="rail_fast" oneway="1"/>
    <type id="railway.light_rail" priority="19" numLanes="1" speed="27.78" allow="rail_urban" oneway="1"/>
    <type id="railway.preserved" priority="16" numLanes="1" speed="27.78" allow="rail" oneway="1"/>
    <type id="railway.rail" priority="20" numLanes="1" speed="44.44" allow="rail" oneway="1"/>
    <type id="railway.subway" priority="18" numLanes="1" speed="27.78" allow="rail_urban" oneway="1"/>
    <type id="railway.tram" priority="17" numLanes="1" speed="13.89" allow="tram" oneway="1"/>

    <edge id=":1687936700_0" function="internal">
        <lane id=":1687936700_0_0" index="0" disallow="tram rail_urban rail rail_electric rail_fast ship" speed="13.89" length="14.15" shape="275.73,229.77 273.98,226.30 272.44,224.12 270.68,222.06 268.28,218.96"/>
        <lane id=":1687936700_0_1" index="1" disallow="tram rail_urban rail rail_electric rail_fast ship" speed="13.89" length="14.15" shape="278.66,228.47 276.83,224.82 275.22,222.53 273.39,220.36 270.88,217.10"/>
        <lane id=":1687936700_0_2" index="2" disallow="tram rail_urban rail rail_electric rail_fast ship" speed="13.89" length="14.15" shape="281.58,227.17 279.67,223.35 278.01,220.93 276.11,218.65 273.49,215.24"/>
        <lane id=":1687936700_0_3" index="3" disallow="tram rail_urban rail rail_electric rail_fast ship" speed="13.89" length="14.15" shape="284.51,225.87 282.52,221.88 280.79,219.34 278.82,216.95 276.09,213.38"/>
    </edge>
    <edge id=":1687936700_4" function="internal">
        <lane id=":1687936700_4_0" index="0" disallow="pedestrian bicycle tram rail_urban rail rail_electric rail_fast ship" speed="11.00" length="11.95" shape="284.51,225.87 282.94,221.97 282.00,218.76 281.70,216.24 282.02,214.40"/>
        <lane id=":1687936700_4_1" index="1" disallow="pedestrian bicycle tram rail_urban rail rail_electric rail_fast ship" speed="8.49" length="10.87" shape="284.51,225.87 283.33,222.60 282.92,219.80 283.26,217.45 284.36,215.56"/>
    </edge>
    <edge id=":1791609730_0" function="internal">
        <lane id=":1791609730_0_0" index="0" disallow="pedestrian bicycle tram rail_urban rail rail_electric rail_fast ship" speed="13.89" length="19.78" shape="275.43,210.03 279.15,209.73 283.14,208.32 287.85,206.04 293.74,203.12"/>
    </edge>
    <edge id=":1791609730_1" function="internal">
        <lane id=":1791609730_1_0" index="0" disallow="pedestrian bicycle tram rail_urban rail rail_electric rail_fast ship" speed="13.89" length="15.54" shape="282.10,214.22 284.24,209.86 286.39,207.20 289.31,205.27 293.74,203.12"/>
        <lane id=":1791609730_1_1" index="1" disallow="pedestrian bicycle tram rail_urban rail rail_electric rail_fast ship" speed="13.89" length="15.54" shape="284.50,215.41 287.25,212.13 289.18,209.87 291.42,208.02 295.12,206.00"/>
    </edge>
    <edge id=":1791609759_0" function="internal">
        <lane id=":1791609759_0_0" index="0" disallow="pedestrian tram rail_urban rail rail_electric rail_fast ship" speed="13.89" length="7.58" shape="202.25,254.80 203.98,255.98 205.39,256.44 206.84,256.83 208.70,257.84"/>
        <lane id=":1791609759_0_1" index="1" disallow="pedestrian tram rail_urban rail rail_electric rail_fast ship" speed="13.89" length="7.58" shape="202.25,254.80 203.71,256.41 204.47,257.75 205.27,259.03 206.87,260.46"/>
        <lane id=":1791609759_0_2" index="2" disallow="pedestrian tram rail_urban rail rail_electric rail_fast ship" speed="13.89" length="7.58" shape="200.14,257.21 201.68,258.88 202.49,260.27 203.35,261.59 205.03,263.08"/>
        <lane id=":1791609759_0_3" index="3" disallow="pedestrian tram rail_urban rail rail_electric rail_fast ship" speed="13.89" length="7.58" shape="198.03,259.61 199.64,261.36 200.51,262.79 201.43,264.16 203.20,265.70"/>
    </edge>
    <edge id=":1834285298_0" function="internal">
        <lane id=":1834285298_0_0" index="0" disallow="tram rail_urban rail rail_electric rail_fast ship" speed="6.49" length="9.03" shape="394.78,71.90 393.45,69.81 391.78,68.65 389.75,68.42 387.38,69.12"/>
    </edge>
    <edge id=":1834285298_1" function="internal">
        <lane id=":1834285298_1_0" index="0" disallow="pedestrian tram rail_urban rail rail_electric rail_fast ship" speed="6.52" length="9.05" shape="400.48,63.14 398.40,64.48 397.24,66.16 397.01,68.20 397.70,70.58"/>
    </edge>
    <edge id=":1834285298_2" function="internal">
        <lane id=":1834285298_2_0" index="0" disallow="pedestrian tram rail_urban rail rail_electric rail_fast ship" speed="13.89" length="14.40" shape="400.48,63.14 387.38,69.12"/>
    </edge>
    <edge id=":247043848_0" function="internal">
        <lane id=":247043848_0_0" index="0" disallow="pedestrian tram rail_urban rail rail_electric rail_fast ship" speed="13.89" length="8.11" shape="238.64,102.81 238.56,105.12 239.31,106.72 240.10,108.32 240.18,110.67"/>
        <lane id=":247043848_0_1" index="1" disallow="pedestrian tram rail_urban rail rail_electric rail_fast ship" speed="13.89" length="8.11" shape="235.54,102.01 235.44,104.38 236.18,106.03 236.97,107.69 237.03,110.09"/>
        <lane id=":247043848_0_2" index="2" disallow="pedestrian tram rail_urban rail rail_electric rail_fast ship" speed="13.89" length="8.11" shape="235.54,102.01 233.89,109.52"/>
    </edge>
    <edge id=":247043848_3" function="internal">
        <lane id=":247043848_3_0" index="0" disallow="pedestrian tram rail_urban rail rail_electric rail_fast ship" speed="13.89" length="8.03" shape="227.59,108.37 229.34,100.42"/>
        <lane id=":247043848_3_1" index="1" disallow="pedestrian tram rail_urban rail rail_electric rail_fast ship" speed="13.89" length="8.03" shape="230.74,108.94 232.44,101.21"/>
    </edge>
    <edge id=":2666429640_0" function="internal">
        <lane id=":2666429640_0_0" index="0" disallow="pedestrian tram rail_urban rail rail_electric rail_fast ship" speed="13.89" length="18.67" shape="185.69,234.21 187.64,239.28 189.38,242.62 191.81,245.50 195.82,249.16"/>
        <lane id=":2666429640_0_1" index="1" disallow="pedestrian tram rail_urban rail rail_electric rail_fast ship" speed="13.89" length="18.67" shape="182.69,235.32 184.63,240.49 186.30,243.95 188.67,246.93 192.69,250.67"/>
        <lane id=":2666429640_0_2" index="2" disallow="pedestrian tram rail_urban rail rail_electric rail_fast ship" speed="13.89" length="18.67" shape="179.69,236.43 181.61,241.71 183.22,245.28 185.53,248.36 189.57,252.19"/>
    </edge>
    <edge id=":2666429640_3" function="internal">
        <lane id=":2666429640_3_0" index="0" disallow="pedestrian bicycle tram rail_urban rail rail_electric rail_fast ship" speed="13.89" length="18.44" shape="179.69,236.43 181.79,241.52 183.15,245.28 183.26,248.98 181.59,253.94"/>
        <lane id=":2666429640_3_1" index="1" disallow="pedestrian bicycle tram rail_urban rail rail_electric rail_fast ship" speed="13.89" length="18.36" shape="179.69,236.43 181.24,241.51 181.39,245.27 180.30,248.98 178.08,253.92"/>
    </edge>
    <edge id=":2666453628_0" function="internal">
        <lane id=":2666453628_0_0" index="0" disallow="tram rail_urban rail rail_electric rail_fast ship" speed="16.67" length="13.05" shape="260.21,288.59 270.71,296.32"/>
        <lane id=":2666453628_0_1" index="1" disallow="tram rail_urban rail rail_electric rail_fast ship" speed="16.67" length="13.05" shape="258.31,291.17 268.82,298.90"/>
        <lane id=":2666453628_0_2" index="2" disallow="tram rail_urban rail rail_electric rail_fast ship" speed="16.67" length="13.05" shape="256.42,293.75 266.93,301.49"/>
    </edge>
    <edge id=":2666453628_3" function="internal">
        <lane id=":2666453628_3_0" index="0" disallow="pedestrian bicycle tram rail_urban rail rail_electric rail_fast ship" speed="15.28" length="15.17" shape="253.37,297.65 256.99,297.46 260.61,296.79 264.46,296.86 268.82,298.90"/>
        <lane id=":2666453628_3_1" index="1" disallow="pedestrian bicycle tram rail_urban rail rail_electric rail_fast ship" speed="15.28" length="15.17" shape="253.37,297.65 256.78,297.92 259.87,298.24 263.11,299.22 266.93,301.49"/>
    </edge>
    <edge id=":2666453633_0" function="internal">
        <lane id=":2666453633_0_0" index="0" disallow="pedestrian bicycle tram rail_urban rail rail_electric rail_fast ship" speed="13.89" length="6.65" shape="215.27,309.54 216.37,307.87 216.82,306.51 217.29,305.18 218.44,303.54"/>
        <lane id=":2666453633_0_1" index="1" disallow="pedestrian bicycle tram rail_urban rail rail_electric rail_fast ship" speed="13.89" length="6.65" shape="217.70,311.61 218.78,309.97 219.22,308.64 219.67,307.32 220.79,305.72"/>
        <lane id=":2666453633_0_2" index="2" disallow="pedestrian bicycle tram rail_urban rail rail_electric rail_fast ship" speed="13.89" length="6.65" shape="220.14,313.69 221.19,312.08 221.61,310.77 222.04,309.47 223.13,307.90"/>
        <lane id=":2666453633_0_3" index="3" disallow="pedestrian bicycle tram rail_urban rail rail_electric rail_fast ship" speed="13.89" length="6.65" shape="222.57,315.76 223.60,314.18 224.00,312.90 224.41,311.62 225.48,310.08"/>
    </edge>
    <edge id=":2666453633_4" function="internal">
        <lane id=":2666453633_4_0" index="0" disallow="pedestrian bicycle tram rail_urban rail rail_electric rail_fast ship" speed="13.89" length="8.36" shape="222.57,315.76 223.57,313.58 223.50,311.59 223.59,309.79 225.08,308.21"/>
    </edge>
    <edge id=":3182003379_0" function="internal">
        <lane id=":3182003379_0_0" index="0" disallow="tram rail_urban rail rail_electric rail_fast ship" speed="16.67" length="9.41" shape="343.27,346.58 336.13,340.45"/>
        <lane id=":3182003379_0_1" index="1" disallow="tram rail_urban rail rail_electric rail_fast ship" speed="16.67" length="9.41" shape="345.35,344.15 338.21,338.02"/>
        <lane id=":3182003379_0_2" index="2" disallow="tram rail_urban rail rail_electric rail_fast ship" speed="16.67" length="9.41" shape="347.44,341.72 340.30,335.60"/>
    </edge>
    <edge id=":3182003379_3" function="internal">
        <lane id=":3182003379_3_0" index="0" disallow="tram rail_urban rail rail_electric rail_fast ship" speed="6.17" length="7.81" shape="347.44,341.72 345.48,339.79 344.37,338.06 344.10,336.52 344.67,335.19"/>
    </edge>
    <edge id=":3182003379_4" function="internal">
        <lane id=":3182003379_4_0" index="0" disallow="tram rail_urban rail rail_electric rail_fast ship" speed="6.83" length="10.34" shape="347.17,337.19 345.09,339.13 342.91,339.92 340.61,339.55 338.21,338.02"/>
        <lane id=":3182003379_4_1" index="1" disallow="tram rail_urban rail rail_electric rail_fast ship" speed="6.04" length="7.86" shape="347.17,337.19 345.97,338.05 344.43,338.07 342.54,337.25 340.30,335.60"/>
    </edge>
    <edge id=":3182003379_6" function="internal">
        <lane id=":3182003379_6_0" index="0" disallow="tram rail_urban rail rail_electric rail_fast ship" speed="3.65" length="4.67" shape="347.17,337.19 345.79,337.62 344.92,337.44 344.54,336.62 344.67,335.19"/>
    </edge>
    <edge id=":3614413266_0" function="internal">
        <lane id=":3614413266_0_0" index="0" disallow="tram rail_urban rail rail_electric rail_fast ship" speed="13.89" length="12.59" shape="279.00,243.74 279.08,240.57 279.00,238.36 278.49,236.24 277.31,233.32"/>
        <lane id=":3614413266_0_1" index="1" disallow="tram rail_urban rail rail_electric rail_fast ship" speed="13.89" length="12.59" shape="282.20,243.64 282.28,240.10 282.16,237.64 281.57,235.28 280.24,232.02"/>
        <lane id=":3614413266_0_2" index="2" disallow="tram rail_urban rail rail_electric rail_fast ship" speed="13.89" length="12.59" shape="285.40,243.54 285.48,239.63 285.32,236.92 284.64,234.32 283.16,230.72"/>
        <lane id=":3614413266_0_3" index="3" disallow="tram rail_urban rail rail_electric rail_fast ship" speed="13.89" length="12.59" shape="288.61,243.44 288.68,239.16 288.48,236.20 287.72,233.36 286.08,229.42"/>
    </edge>
    <edge id=":3614413266_4" function="internal">
        <lane id=":3614413266_4_0" index="0" disallow="tram rail_urban rail rail_electric rail_fast ship" speed="7.38" length="11.77" shape="288.61,243.44 289.02,239.57 290.11,236.81 291.87,235.15 294.30,234.61"/>
        <lane id=":3614413266_4_1" index="1" disallow="tram rail_urban rail rail_electric rail_fast ship" speed="6.56" length="9.10" shape="288.61,243.44 289.00,240.97 290.08,239.21 291.84,238.15 294.29,237.81"/>
    </edge>
    <edge id=":4735252792_0" function="internal">
        <lane id=":4735252792_0_0" index="0" disallow="pedestrian tram rail_urban rail rail_electric rail_fast ship" speed="13.89" length="8.35" shape="225.53,151.48 224.62,149.01 222.93,147.59 221.44,146.18 221.12,143.75"/>
        <lane id=":4735252792_0_1" index="1" disallow="pedestrian tram rail_urban rail rail_electric rail_fast ship" speed="13.89" length="8.35" shape="225.53,151.48 225.15,149.33 224.57,147.88 224.16,146.44 224.27,144.32"/>
    </edge>
    <edge id=":4735252792_2" function="internal">
        <lane id=":4735252792_2_0" index="0" disallow="pedestrian tram rail_urban rail rail_electric rail_fast ship" speed="13.89" length="9.13" shape="233.71,146.05 232.60,148.01 230.77,148.75 228.90,149.47 227.64,151.40"/>
        <lane id=":4735252792_2_1" index="1" disallow="pedestrian tram rail_urban rail rail_electric rail_fast ship" speed="13.89" length="9.13" shape="230.57,145.47 229.41,147.63 227.54,148.52 225.62,149.40 224.30,151.52"/>
        <lane id=":4735252792_2_2" index="2" disallow="pedestrian tram rail_urban rail rail_electric rail_fast ship" speed="13.89" length="9.13" shape="227.42,144.90 226.22,147.25 224.31,148.29 222.35,149.32 220.97,151.64"/>
    </edge>
    <edge id=":4939719047_0" function="internal">
        <lane id=":4939719047_0_0" index="0" disallow="pedestrian bicycle tram rail_urban rail rail_electric rail_fast ship" speed="13.89" length="9.38" shape="80.98,372.93 74.97,380.10"/>
        <lane id=":4939719047_0_1" index="1" disallow="pedestrian bicycle tram rail_urban rail rail_electric rail_fast ship" speed="13.89" length="9.38" shape="78.54,370.86 72.50,378.06"/>
    </edge>
    <edge id=":4939719047_2" function="internal">
        <lane id=":4939719047_2_0" index="0" disallow="pedestrian bicycle tram rail_urban rail rail_electric rail_fast ship" speed="6.02" length="7.94" shape="78.54,370.86 76.57,372.85 74.81,373.93 73.27,374.11 71.94,373.37"/>
    </edge>
    <edge id=":4939719047_3" function="internal">
        <lane id=":4939719047_3_0" index="0" disallow="pedestrian bicycle tram rail_urban rail rail_electric rail_fast ship" speed="6.29" length="7.86" shape="74.16,371.07 74.92,372.34 74.89,373.93 74.09,375.83 72.50,378.06"/>
    </edge>
    <edge id=":5134093684_0" function="internal">
        <lane id=":5134093684_0_0" index="0" disallow="tram rail_urban rail rail_electric rail_fast ship" speed="13.89" length="8.08" shape="230.31,193.90 228.07,193.57 226.53,193.37 224.98,193.23 222.72,193.10"/>
        <lane id=":5134093684_0_1" index="1" disallow="tram rail_urban rail rail_electric rail_fast ship" speed="13.89" length="8.08" shape="230.76,190.73 228.43,190.39 226.83,190.18 225.23,190.03 222.87,189.90"/>
        <lane id=":5134093684_0_2" index="2" disallow="tram rail_urban rail rail_electric rail_fast ship" speed="13.89" length="8.08" shape="231.21,187.56 228.79,187.21 227.13,186.99 225.47,186.84 223.03,186.70"/>
        <lane id=":5134093684_0_3" index="3" disallow="tram rail_urban rail rail_electric rail_fast ship" speed="13.89" length="8.08" shape="231.66,184.39 229.15,184.03 227.44,183.81 225.72,183.65 223.19,183.51"/>
    </edge>
    <edge id=":5134093684_4" function="internal">
        <lane id=":5134093684_4_0" index="0" disallow="pedestrian tram rail_urban rail rail_electric rail_fast ship" speed="6.82" length="9.17" shape="231.66,184.39 229.31,183.71 227.66,182.42 226.71,180.53 226.44,178.03"/>
    </edge>
    <edge id=":60662443_0" function="internal">
        <lane id=":60662443_0_0" index="0" disallow="tram rail_urban rail rail_electric rail_fast ship" speed="13.89" length="14.64" shape="262.65,272.51 265.84,271.00 268.22,270.07 270.14,268.70 271.96,265.90"/>
        <lane id=":60662443_0_1" index="1" disallow="tram rail_urban rail rail_electric rail_fast ship" speed="13.89" length="14.64" shape="264.23,275.29 267.91,273.49 270.60,272.30 272.76,270.60 274.83,267.30"/>
        <lane id=":60662443_0_2" index="2" disallow="tram rail_urban rail rail_electric rail_fast ship" speed="13.89" length="14.64" shape="265.82,278.07 269.98,275.98 272.98,274.53 275.38,272.51 277.71,268.70"/>
        <lane id=":60662443_0_3" index="3" disallow="tram rail_urban rail rail_electric rail_fast ship" speed="13.89" length="14.64" shape="267.41,280.85 272.06,278.46 275.37,276.76 277.99,274.41 280.59,270.11"/>
    </edge>
    <edge id=":60662443_4" function="internal">
        <lane id=":60662443_4_0" index="0" disallow="tram rail_urban rail rail_electric rail_fast ship" speed="10.80" length="15.63" shape="272.09,283.11 271.15,280.57 271.30,277.09 272.52,272.67 274.83,267.30"/>
        <lane id=":60662443_4_1" index="1" disallow="tram rail_urban rail rail_electric rail_fast ship" speed="10.48" length="15.63" shape="276.37,283.58 275.13,280.81 274.94,277.40 275.80,273.37 277.71,268.70"/>
        <lane id=":60662443_4_2" index="2" disallow="tram rail_urban rail rail_electric rail_fast ship" speed="10.17" length="15.63" shape="280.65,284.05 279.11,281.04 278.59,277.72 279.08,274.07 280.59,270.11"/>
    </edge>
    <edge id=":60662450_0" function="internal">
        <lane id=":60662450_0_0" index="0" disallow="tram rail_urban rail rail_electric rail_fast ship" speed="13.89" length="13.46" shape="222.52,193.09 218.99,192.90 216.55,192.89 214.16,193.23 210.74,194.10"/>
        <lane id=":60662450_0_1" index="1" disallow="tram rail_urban rail rail_electric rail_fast ship" speed="13.89" length="13.46" shape="222.68,189.89 218.84,189.69 216.20,189.69 213.59,190.07 209.89,191.02"/>
        <lane id=":60662450_0_2" index="2" disallow="tram rail_urban rail rail_electric rail_fast ship" speed="13.89" length="13.46" shape="222.83,186.69 218.70,186.48 215.84,186.49 213.03,186.91 209.03,187.93"/>
        <lane id=":60662450_0_3" index="3" disallow="tram rail_urban rail rail_electric rail_fast ship" speed="13.89" length="13.46" shape="222.99,183.50 218.55,183.27 215.48,183.29 212.47,183.75 208.17,184.85"/>
    </edge>
    <edge id=":60662450_4" function="internal">
        <lane id=":60662450_4_0" index="0" disallow="pedestrian tram rail_urban rail rail_electric rail_fast ship" speed="11.47" length="18.36" shape="221.06,177.55 219.32,182.57 216.88,186.48 213.74,189.30 209.89,191.02"/>
        <lane id=":60662450_4_1" index="1" disallow="pedestrian tram rail_urban rail rail_electric rail_fast ship" speed="10.40" length="15.00" shape="217.96,176.75 216.53,180.95 214.57,184.22 212.07,186.55 209.03,187.93"/>
        <lane id=":60662450_4_2" index="2" disallow="pedestrian tram rail_urban rail rail_electric rail_fast ship" speed="9.22" length="11.65" shape="214.86,175.95 213.74,179.34 212.25,181.96 210.39,183.79 208.17,184.85"/>
    </edge>
    <edge id=":60662451_0" function="internal">
        <lane id=":60662451_0_0" index="0" disallow="tram rail_urban rail rail_electric rail_fast ship" speed="13.89" length="19.11" shape="251.74,204.36 247.57,200.91 244.47,198.83 241.08,197.25 236.02,195.30"/>
        <lane id=":60662451_0_1" index="1" disallow="tram rail_urban rail rail_electric rail_fast ship" speed="13.89" length="19.11" shape="253.39,201.56 249.09,198.02 245.89,195.91 242.38,194.31 237.17,192.31"/>
        <lane id=":60662451_0_2" index="2" disallow="tram rail_urban rail rail_electric rail_fast ship" speed="13.89" length="19.11" shape="255.04,198.76 250.61,195.14 247.30,192.99 243.68,191.37 238.31,189.32"/>
        <lane id=":60662451_0_3" index="3" disallow="tram rail_urban rail rail_electric rail_fast ship" speed="13.89" length="19.11" shape="256.69,195.96 252.13,192.25 248.72,190.07 244.99,188.42 239.46,186.33"/>
    </edge>
    <edge id=":60662451_4" function="internal">
        <lane id=":60662451_4_0" index="0" disallow="pedestrian bicycle tram rail_urban rail rail_electric rail_fast ship" speed="13.89" length="17.13" shape="255.64,192.17 249.93,194.57 245.80,196.32 241.69,196.78 236.02,195.30"/>
        <lane id=":60662451_4_1" index="1" disallow="pedestrian bicycle tram rail_urban rail rail_electric rail_fast ship" speed="13.89" length="17.13" shape="254.46,189.19 249.42,191.37 245.79,193.04 242.17,193.56 237.17,192.31"/>
        <lane id=":60662451_4_2" index="2" disallow="pedestrian bicycle tram rail_urban rail rail_electric rail_fast ship" speed="13.89" length="17.13" shape="253.28,186.22 248.91,188.18 245.77,189.76 242.65,190.35 238.31,189.32"/>
        <lane id=":60662451_4_3" index="3" disallow="pedestrian bicycle tram rail_urban rail rail_electric rail_fast ship" speed="13.07" length="17.13" shape="252.10,183.24 248.39,184.98 245.76,186.48 243.13,187.14 239.46,186.33"/>
    </edge>
    <edge id=":6105828742_0" function="internal">
        <lane id=":6105828742_0_0" index="0" disallow="tram rail_urban rail rail_electric rail_fast ship" speed="16.67" length="10.89" shape="360.62,368.88 363.21,371.05 364.87,372.67 366.41,374.42 368.64,376.97"/>
        <lane id=":6105828742_0_1" index="1" disallow="tram rail_urban rail rail_electric rail_fast ship" speed="16.67" length="10.89" shape="358.61,371.38 361.08,373.45 362.66,375.00 364.13,376.67 366.26,379.11"/>
        <lane id=":6105828742_0_2" index="2" disallow="tram rail_urban rail rail_electric rail_fast ship" speed="16.67" length="10.89" shape="356.61,373.87 358.96,375.85 360.46,377.33 361.85,378.92 363.87,381.24"/>
    </edge>
    <edge id=":6105828742_3" function="internal">
        <lane id=":6105828742_3_0" index="0" disallow="tram rail_urban rail rail_electric rail_fast ship" speed="7.50" length="9.36" shape="356.61,373.87 358.56,375.80 359.72,377.80 360.08,379.88 359.65,382.03"/>
    </edge>
    <edge id=":6105828742_4" function="internal">
        <lane id=":6105828742_4_0" index="0" disallow="tram rail_urban rail rail_electric rail_fast ship" speed="6.67" length="13.04" shape="356.66,380.90 358.50,377.49 360.72,376.05 363.30,376.59 366.26,379.11"/>
        <lane id=":6105828742_4_1" index="1" disallow="tram rail_urban rail rail_electric rail_fast ship" speed="5.79" length="9.46" shape="356.66,380.90 357.88,378.89 359.48,378.27 361.48,379.06 363.87,381.24"/>
    </edge>
    <edge id=":6646753476_0" function="internal">
        <lane id=":6646753476_0_0" index="0" disallow="pedestrian bicycle tram rail_urban rail rail_electric rail_fast ship" speed="8.02" length="12.47" shape="265.39,186.72 262.89,188.43 261.42,190.78 260.98,193.76 261.55,197.38"/>
    </edge>
    <edge id=":6646753476_1" function="internal">
        <lane id=":6646753476_1_0" index="0" disallow="pedestrian bicycle tram rail_urban rail rail_electric rail_fast ship" speed="13.89" length="10.79" shape="265.39,186.72 262.52,188.27 260.68,189.58 258.80,190.80 255.83,192.10"/>
        <lane id=":6646753476_1_1" index="1" disallow="pedestrian bicycle tram rail_urban rail rail_electric rail_fast ship" speed="13.89" length="10.79" shape="264.04,183.82 261.22,185.35 259.41,186.64 257.57,187.84 254.65,189.12"/>
        <lane id=":6646753476_1_2" index="2" disallow="pedestrian bicycle tram rail_urban rail rail_electric rail_fast ship" speed="13.89" length="10.79" shape="262.69,180.92 259.92,182.42 258.15,183.70 256.34,184.89 253.47,186.15"/>
        <lane id=":6646753476_1_3" index="3" disallow="pedestrian bicycle tram rail_urban rail rail_electric rail_fast ship" speed="13.89" length="10.79" shape="262.69,180.92 259.73,181.96 257.56,182.21 255.35,182.37 252.29,183.17"/>
    </edge>
    <edge id=":6823613414_0" function="internal">
        <lane id=":6823613414_0_0" index="0" disallow="pedestrian bicycle tram rail_urban rail rail_electric rail_fast ship" speed="13.89" length="8.47" shape="200.92,331.02 202.17,328.95 202.36,327.13 202.51,325.28 203.68,323.14"/>
        <lane id=":6823613414_0_1" index="1" disallow="pedestrian bicycle tram rail_urban rail rail_electric rail_fast ship" speed="13.89" length="8.47" shape="200.92,331.02 206.12,325.21"/>
        <lane id=":6823613414_0_2" index="2" disallow="pedestrian bicycle tram rail_urban rail rail_electric rail_fast ship" speed="13.89" length="8.47" shape="200.92,331.02 202.95,329.59 204.79,329.21 206.61,328.80 208.55,327.29"/>