<?xml version="1.0" encoding="UTF-8"?>

<!-- generated on 2023-07-19 10:53:41 by Eclipse SUMO netconvert Version 1.17.0
<configuration xmlns:xsi="http://www.w3.org/2001/XMLSchema-instance" xsi:noNamespaceSchemaLocation="http://sumo.dlr.de/xsd/netconvertConfiguration.xsd">

    <input>
        <sumo-net-file value="osm.net.xml.gz"/>
    </input>

    <output>
        <output-file value="osm.net.xml"/>
        <output.street-names value="true"/>
    </output>

    <processing>
        <geometry.min-radius.fix.railways value="false"/>
        <geometry.max-grade.fix value="false"/>
        <offset.disable-normalization value="true"/>
        <lefthand value="1"/>
    </processing>

    <junctions>
        <no-turnarounds value="true"/>
        <junctions.corner-detail value="5"/>
        <junctions.limit-turn-speed value="5.50"/>
        <rectangular-lane-cut value="0"/>
    </junctions>

    <pedestrian>
        <walkingareas value="0"/>
    </pedestrian>

</configuration>
-->

<net version="1.16" junctionCornerDetail="5" lefthand="true" limitTurnSpeed="5.50" xmlns:xsi="http://www.w3.org/2001/XMLSchema-instance" xsi:noNamespaceSchemaLocation="http://sumo.dlr.de/xsd/net_file.xsd">

    <location netOffset="-381212.06,-145076.64" convBoundary="0.00,0.00,287.81,319.23" origBoundary="103.932266,1.312323,103.934853,1.315210" projParameter="+proj=utm +zone=48 +ellps=WGS84 +datum=WGS84 +units=m +no_defs"/>

    <type id="highway.bridleway" priority="1" numLanes="1" speed="2.78" allow="pedestrian" oneway="1" width="2.00"/>
    <type id="highway.bus_guideway" priority="1" numLanes="1" speed="27.78" allow="bus" oneway="1"/>
    <type id="highway.cycleway" priority="1" numLanes="1" speed="5.56" allow="bicycle" oneway="0" width="1.00"/>
    <type id="highway.footway" priority="1" numLanes="1" speed="2.78" allow="pedestrian" oneway="1" width="2.00"/>
    <type id="highway.ford" priority="1" numLanes="1" speed="2.78" allow="army" oneway="0"/>
    <type id="highway.living_street" priority="2" numLanes="1" speed="2.78" disallow="tram rail_urban rail rail_electric rail_fast ship" oneway="0"/>
    <type id="highway.motorway" priority="14" numLanes="2" speed="39.44" allow="private emergency authority army vip passenger hov taxi bus coach delivery truck trailer motorcycle evehicle custom1 custom2" oneway="1"/>
    <type id="highway.motorway_link" priority="9" numLanes="1" speed="22.22" allow="private emergency authority army vip passenger hov taxi bus coach delivery truck trailer motorcycle evehicle custom1 custom2" oneway="1"/>
    <type id="highway.path" priority="1" numLanes="1" speed="5.56" allow="pedestrian bicycle" oneway="0" width="2.00"/>
    <type id="highway.pedestrian" priority="1" numLanes="1" speed="2.78" allow="pedestrian" oneway="1" width="2.00"/>
    <type id="highway.primary" priority="12" numLanes="2" speed="27.78" disallow="tram rail_urban rail rail_electric rail_fast ship" oneway="0"/>
    <type id="highway.primary_link" priority="7" numLanes="1" speed="22.22" disallow="tram rail_urban rail rail_electric rail_fast ship" oneway="0"/>
    <type id="highway.raceway" priority="15" numLanes="2" speed="83.33" allow="vip" oneway="0"/>
    <type id="highway.residential" priority="3" numLanes="1" speed="13.89" disallow="tram rail_urban rail rail_electric rail_fast ship" oneway="0"/>
    <type id="highway.secondary" priority="11" numLanes="1" speed="27.78" disallow="tram rail_urban rail rail_electric rail_fast ship" oneway="0"/>
    <type id="highway.secondary_link" priority="6" numLanes="1" speed="22.22" disallow="tram rail_urban rail rail_electric rail_fast ship" oneway="0"/>
    <type id="highway.service" priority="1" numLanes="1" speed="5.56" allow="pedestrian delivery bicycle" oneway="0"/>
    <type id="highway.stairs" priority="1" numLanes="1" speed="1.39" allow="pedestrian" oneway="1" width="2.00"/>
    <type id="highway.step" priority="1" numLanes="1" speed="1.39" allow="pedestrian" oneway="1" width="2.00"/>
    <type id="highway.steps" priority="1" numLanes="1" speed="1.39" allow="pedestrian" oneway="1" width="2.00"/>
    <type id="highway.tertiary" priority="10" numLanes="1" speed="22.22" disallow="tram rail_urban rail rail_electric rail_fast ship" oneway="0"/>
    <type id="highway.tertiary_link" priority="5" numLanes="1" speed="22.22" disallow="tram rail_urban rail rail_electric rail_fast ship" oneway="0"/>
    <type id="highway.track" priority="1" numLanes="1" speed="5.56" allow="pedestrian motorcycle moped bicycle" oneway="0"/>
    <type id="highway.trunk" priority="13" numLanes="2" speed="27.78" disallow="pedestrian bicycle tram rail_urban rail rail_electric rail_fast ship" oneway="0"/>
    <type id="highway.trunk_link" priority="8" numLanes="1" speed="22.22" disallow="pedestrian bicycle tram rail_urban rail rail_electric rail_fast ship" oneway="0"/>
    <type id="highway.unclassified" priority="4" numLanes="1" speed="13.89" disallow="tram rail_urban rail rail_electric rail_fast ship" oneway="0"/>
    <type id="highway.unsurfaced" priority="1" numLanes="1" speed="8.33" disallow="tram rail_urban rail rail_electric rail_fast ship" oneway="0"/>
    <type id="railway.highspeed" priority="21" numLanes="1" speed="69.44" allow="rail_fast" oneway="1"/>
    <type id="railway.light_rail" priority="19" numLanes="1" speed="27.78" allow="rail_urban" oneway="1"/>
    <type id="railway.preserved" priority="16" numLanes="1" speed="27.78" allow="rail" oneway="1"/>
    <type id="railway.rail" priority="20" numLanes="1" speed="44.44" allow="rail" oneway="1"/>
    <type id="railway.subway" priority="18" numLanes="1" speed="27.78" allow="rail_urban" oneway="1"/>
    <type id="railway.tram" priority="17" numLanes="1" speed="13.89" allow="tram" oneway="1"/>

    <edge id=":243492182_0" function="internal">
        <lane id=":243492182_0_0" index="0" disallow="tram rail_urban rail rail_electric rail_fast ship" speed="16.67" length="8.40" shape="170.80,100.78 169.70,103.04 168.25,104.27 166.81,105.49 165.72,107.76"/>
        <lane id=":243492182_0_1" index="1" disallow="tram rail_urban rail rail_electric rail_fast ship" speed="16.67" length="8.40" shape="170.80,100.78 168.82,108.54"/>
        <lane id=":243492182_0_2" index="2" disallow="tram rail_urban rail rail_electric rail_fast ship" speed="16.67" length="8.40" shape="173.90,101.58 171.93,109.32"/>
        <lane id=":243492182_0_3" index="3" disallow="tram rail_urban rail rail_electric rail_fast ship" speed="16.67" length="8.40" shape="173.90,101.58 173.77,104.08 174.45,105.84 175.14,107.59 175.03,110.10"/>
    </edge>
    <edge id=":259397086_0" function="internal">
        <lane id=":259397086_0_0" index="0" disallow="tram rail_urban rail rail_electric rail_fast ship" speed="3.65" length="4.67" shape="46.31,115.40 47.55,114.65 47.98,113.87 47.61,113.05 46.45,112.20"/>
    </edge>
    <edge id=":2879240150_0" function="internal">
        <lane id=":2879240150_0_0" index="0" disallow="tram rail_urban rail rail_electric rail_fast ship" speed="15.28" length="18.22" shape="186.31,136.15 184.63,131.24 183.39,127.78 182.97,124.31 183.74,119.34"/>
        <lane id=":2879240150_0_1" index="1" disallow="tram rail_urban rail rail_electric rail_fast ship" speed="15.28" length="18.22" shape="183.23,137.04 181.43,131.65 180.14,127.85 179.75,124.03 180.64,118.59"/>
    </edge>
    <edge id=":2879240150_2" function="internal">
        <lane id=":2879240150_2_0" index="0" disallow="tram rail_urban rail rail_electric rail_fast ship" speed="16.67" length="18.83" shape="178.18,137.21 180.64,118.59"/>
        <lane id=":2879240150_2_1" index="1" disallow="tram rail_urban rail rail_electric rail_fast ship" speed="16.67" length="18.83" shape="175.05,136.53 177.53,117.83"/>
    </edge>
    <edge id=":4593387844_0" function="internal">
        <lane id=":4593387844_0_0" index="0" disallow="tram rail_urban rail rail_electric rail_fast ship" speed="15.28" length="15.16" shape="111.32,186.21 107.95,186.81 104.78,187.36 101.12,187.71 96.28,187.68"/>
    </edge>
    <edge id=":4593387844_1" function="internal">
        <lane id=":4593387844_1_0" index="0" disallow="tram rail_urban rail rail_electric rail_fast ship" speed="16.67" length="15.18" shape="111.26,190.37 106.79,189.72 103.77,188.91 100.76,188.16 96.28,187.68"/>
        <lane id=":4593387844_1_1" index="1" disallow="tram rail_urban rail rail_electric rail_fast ship" speed="16.67" length="15.18" shape="110.96,193.55 106.53,192.91 103.55,192.10 100.56,191.35 96.12,190.87"/>
    </edge>
    <edge id=":4593387852_0" function="internal">
        <lane id=":4593387852_0_0" index="0" disallow="tram rail_urban rail rail_electric rail_fast ship" speed="15.28" length="6.42" shape="153.56,156.08 153.00,157.88 152.39,159.02 151.56,160.07 150.37,161.57"/>
    </edge>
    <edge id=":4593387852_1" function="internal">
        <lane id=":4593387852_1_0" index="0" disallow="tram rail_urban rail rail_electric rail_fast ship" speed="16.67" length="6.89" shape="156.67,156.87 155.97,158.78 155.20,159.99 154.43,161.21 153.77,163.13"/>
        <lane id=":4593387852_1_1" index="1" disallow="tram rail_urban rail rail_electric rail_fast ship" speed="16.67" length="6.89" shape="159.77,157.65 159.08,159.55 158.31,160.74 157.55,161.94 156.89,163.85"/>
        <lane id=":4593387852_1_2" index="2" disallow="tram rail_urban rail rail_electric rail_fast ship" speed="16.67" length="6.89" shape="162.87,158.43 162.18,160.31 161.42,161.49 160.66,162.68 160.01,164.57"/>
    </edge>
    <edge id=":4593444781_0" function="internal">
        <lane id=":4593444781_0_0" index="0" disallow="tram rail_urban rail rail_electric rail_fast ship" speed="15.28" length="16.01" shape="154.09,257.17 155.62,252.29 157.35,248.76 159.27,245.91 161.36,243.06"/>
    </edge>
    <edge id=":4593444781_1" function="internal">
        <lane id=":4593444781_1_0" index="0" disallow="tram rail_urban rail rail_electric rail_fast ship" speed="16.67" length="15.97" shape="154.09,257.17 157.10,241.36"/>
        <lane id=":4593444781_1_1" index="1" disallow="tram rail_urban rail rail_electric rail_fast ship" speed="16.67" length="15.97" shape="150.98,256.40 153.96,240.72"/>
        <lane id=":4593444781_1_2" index="2" disallow="tram rail_urban rail rail_electric rail_fast ship" speed="16.67" length="15.97" shape="147.88,255.64 150.83,240.08"/>
    </edge>
    <edge id=":4675474956_0" function="internal">
        <lane id=":4675474956_0_0" index="0" disallow="tram rail_urban rail rail_electric rail_fast ship" speed="13.89" length="14.30" shape="243.94,201.70 239.99,200.75 237.63,199.13 235.54,196.85 232.41,193.93"/>
        <lane id=":4675474956_0_1" index="1" disallow="tram rail_urban rail rail_electric rail_fast ship" speed="13.89" length="14.82" shape="243.94,201.70 239.59,201.16 236.62,200.44 233.93,199.04 230.43,196.45"/>
    </edge>
    <edge id=":4675474956_2" function="internal">
        <lane id=":4675474956_2_0" index="0" disallow="tram rail_urban rail rail_electric rail_fast ship" speed="13.89" length="15.05" shape="243.94,201.70 228.95,200.06"/>
        <lane id=":4675474956_2_1" index="1" disallow="tram rail_urban rail rail_electric rail_fast ship" speed="13.89" length="15.05" shape="243.57,204.88 228.61,203.24"/>
        <lane id=":4675474956_2_2" index="2" disallow="tram rail_urban rail rail_electric rail_fast ship" speed="13.89" length="15.05" shape="243.20,208.06 228.26,206.42"/>
    </edge>
    <edge id=":5599381680_0" function="internal">
        <lane id=":5599381680_0_0" index="0" disallow="tram rail_urban rail rail_electric rail_fast ship" speed="13.89" length="19.02" shape="189.74,215.22 193.39,214.13 197.36,212.94 202.19,212.17 208.36,212.34"/>
    </edge>
    <edge id=":5599381680_1" function="internal">
        <lane id=":5599381680_1_0" index="0" disallow="tram rail_urban rail rail_electric rail_fast ship" speed="13.89" length="19.07" shape="189.41,210.81 208.36,212.34"/>
        <lane id=":5599381680_1_1" index="1" disallow="tram rail_urban rail rail_electric rail_fast ship" speed="13.89" length="19.07" shape="189.66,207.62 208.73,209.16"/>
    </edge>
    <edge id=":5599381681_0" function="internal">
        <lane id=":5599381681_0_0" index="0" disallow="tram rail_urban rail rail_electric rail_fast ship" speed="16.67" length="8.17" shape="68.96,195.11 71.30,195.51 72.83,196.18 74.35,196.86 76.68,197.34"/>
        <lane id=":5599381681_0_1" index="1" disallow="tram rail_urban rail rail_electric rail_fast ship" speed="16.67" length="8.17" shape="69.17,191.92 71.53,192.32 73.08,192.99 74.63,193.67 76.99,194.15"/>
        <lane id=":5599381681_0_2" index="2" disallow="tram rail_urban rail rail_electric rail_fast ship" speed="16.67" length="8.17" shape="69.17,191.92 71.59,191.83 73.23,191.39 74.88,190.99 77.29,190.96"/>
    </edge>
    <edge id=":5599381682_0" function="internal">
        <lane id=":5599381682_0_0" index="0" disallow="tram rail_urban rail rail_electric rail_fast ship" speed="15.28" length="16.99" shape="89.56,198.57 94.84,199.65 98.66,201.42 101.73,203.54 104.72,205.64"/>
    </edge>
    <edge id=":5599381682_1" function="internal">
        <lane id=":5599381682_1_0" index="0" disallow="tram rail_urban rail rail_electric rail_fast ship" speed="16.67" length="17.16" shape="89.56,198.57 106.34,201.19"/>
        <lane id=":5599381682_1_1" index="1" disallow="tram rail_urban rail rail_electric rail_fast ship" speed="16.67" length="17.16" shape="89.86,195.39 106.82,198.02"/>
        <lane id=":5599381682_1_2" index="2" disallow="tram rail_urban rail rail_electric rail_fast ship" speed="16.67" length="17.16" shape="90.17,192.20 107.29,194.86"/>
    </edge>
    <edge id=":6011718847_0" function="internal">
        <lane id=":6011718847_0_0" index="0" disallow="tram rail_urban rail rail_electric rail_fast ship" speed="16.67" length="8.17" shape="145.29,286.68 146.03,284.43 146.91,283.01 147.81,281.60 148.62,279.36"/>
        <lane id=":6011718847_0_1" index="1" disallow="tram rail_urban rail rail_electric rail_fast ship" speed="16.67" length="8.17" shape="142.16,286.01 142.91,283.73 143.79,282.30 144.70,280.86 145.51,278.60"/>
        <lane id=":6011718847_0_2" index="2" disallow="tram rail_urban rail rail_electric rail_fast ship" speed="16.67" length="8.17" shape="142.16,286.01 142.42,283.61 142.24,281.91 142.07,280.22 142.40,277.83"/>
    </edge>
    <edge id=":6275761343_0" function="internal">
        <lane id=":6275761343_0_0" index="0" disallow="tram rail_urban rail rail_electric rail_fast ship" speed="3.65" length="4.67" shape="18.32,111.05 17.08,111.80 16.65,112.58 17.02,113.40 18.18,114.25"/>
    </edge>
    <edge id=":cluster_243485057_243507369_5599381676_5599381677_0" function="internal">
        <lane id=":cluster_243485057_243507369_5599381676_5599381677_0_0" index="0" disallow="tram rail_urban rail rail_electric rail_fast ship" speed="16.67" length="28.63" shape="148.87,184.36 144.71,212.72"/>
        <lane id=":cluster_243485057_243507369_5599381676_5599381677_0_1" index="1" disallow="tram rail_urban rail rail_electric rail_fast ship" speed="16.67" length="28.63" shape="151.98,185.10 147.84,213.39"/>
    </edge>
    <edge id=":cluster_243485057_243507369_5599381676_5599381677_2" function="internal">
        <lane id=":cluster_243485057_243507369_5599381676_5599381677_2_0" index="0" disallow="tram rail_urban rail rail_electric rail_fast ship" speed="10.80" length="16.44" shape="155.10,185.84 154.54,193.58 156.88,199.43 158.78,200.86"/>
    </edge>
    <edge id=":cluster_243485057_243507369_5599381676_5599381677_3" function="internal">
        <lane id=":cluster_243485057_243507369_5599381676_5599381677_3_0" index="0" disallow="tram rail_urban rail rail_electric rail_fast ship" speed="5.45" length="9.88" shape="155.10,185.84 156.51,189.65 158.45,191.27 160.91,190.70 161.46,190.18"/>
    </edge>
    <edge id=":cluster_243485057_243507369_5599381676_5599381677_16" function="internal">
        <lane id=":cluster_243485057_243507369_5599381676_5599381677_16_0" index="0" disallow="tram rail_urban rail rail_electric rail_fast ship" speed="10.80" length="12.57" shape="158.78,200.86 162.11,203.37 170.25,205.41"/>
    </edge>
    <edge id=":cluster_243485057_243507369_5599381676_5599381677_17" function="internal">
        <lane id=":cluster_243485057_243507369_5599381676_5599381677_17_0" index="0" disallow="tram rail_urban rail rail_electric rail_fast ship" speed="5.45" length="3.32" shape="161.46,190.18 163.89,187.92"/>
    </edge>
    <edge id=":cluster_243485057_243507369_5599381676_5599381677_4" function="internal">
        <lane id=":cluster_243485057_243507369_5599381676_5599381677_4_0" index="0" disallow="tram rail_urban rail rail_electric rail_fast ship" speed="15.28" length="29.85" shape="171.46,194.78 141.71,192.70"/>
        <lane id=":cluster_243485057_243507369_5599381676_5599381677_4_1" index="1" disallow="tram rail_urban rail rail_electric rail_fast ship" speed="15.28" length="29.85" shape="171.10,197.96 141.31,195.88"/>
    </edge>
    <edge id=":cluster_243485057_243507369_5599381676_5599381677_6" function="internal">
        <lane id=":cluster_243485057_243507369_5599381676_5599381677_6_0" index="0" disallow="tram rail_urban rail rail_electric rail_fast ship" speed="11.79" length="11.22" shape="170.74,201.14 161.79,201.41 159.63,202.09"/>
    </edge>
    <edge id=":cluster_243485057_243507369_5599381676_5599381677_7" function="internal">
        <lane id=":cluster_243485057_243507369_5599381676_5599381677_7_0" index="0" disallow="tram rail_urban rail rail_electric rail_fast ship" speed="4.07" length="2.93" shape="170.74,201.14 169.02,202.03 168.47,202.86"/>
    </edge>
    <edge id=":cluster_243485057_243507369_5599381676_5599381677_18" function="internal">
        <lane id=":cluster_243485057_243507369_5599381676_5599381677_18_0" index="0" disallow="tram rail_urban rail rail_electric rail_fast ship" speed="11.79" length="17.35" shape="159.63,202.09 154.99,203.54 150.34,207.53 147.84,213.39"/>
    </edge>
    <edge id=":cluster_243485057_243507369_5599381676_5599381677_19" function="internal">
        <lane id=":cluster_243485057_243507369_5599381676_5599381677_19_0" index="0" disallow="tram rail_urban rail rail_electric rail_fast ship" speed="4.07" length="3.34" shape="168.47,202.86 168.36,203.03 168.77,204.16 170.25,205.41"/>
    </edge>
    <edge id=":cluster_243485057_243507369_5599381676_5599381677_8" function="internal">
        <lane id=":cluster_243485057_243507369_5599381676_5599381677_8_0" index="0" disallow="tram rail_urban rail rail_electric rail_fast ship" speed="16.67" length="28.22" shape="162.19,216.43 167.00,188.66"/>
        <lane id=":cluster_243485057_243507369_5599381676_5599381677_8_1" index="1" disallow="tram rail_urban rail rail_electric rail_fast ship" speed="16.67" length="28.22" shape="159.06,215.77 163.89,187.92"/>
    </edge>
    <edge id=":cluster_243485057_243507369_5599381676_5599381677_10" function="internal">
        <lane id=":cluster_243485057_243507369_5599381676_5599381677_10_0" index="0" disallow="tram rail_urban rail rail_electric rail_fast ship" speed="10.63" length="16.08" shape="155.93,215.10 156.40,207.17 154.11,201.32 152.63,200.21"/>
    </edge>
    <edge id=":cluster_243485057_243507369_5599381676_5599381677_11" function="internal">
        <lane id=":cluster_243485057_243507369_5599381676_5599381677_11_0" index="0" disallow="tram rail_urban rail rail_electric rail_fast ship" speed="5.24" length="8.76" shape="155.93,215.10 154.55,211.64 152.75,210.20 150.51,210.78 150.21,211.07"/>
    </edge>
    <edge id=":cluster_243485057_243507369_5599381676_5599381677_20" function="internal">
        <lane id=":cluster_243485057_243507369_5599381676_5599381677_20_0" index="0" disallow="tram rail_urban rail rail_electric rail_fast ship" speed="10.63" length="12.38" shape="152.63,200.21 149.08,197.55 141.31,195.88"/>
    </edge>
    <edge id=":cluster_243485057_243507369_5599381676_5599381677_21" function="internal">
        <lane id=":cluster_243485057_243507369_5599381676_5599381677_21_0" index="0" disallow="tram rail_urban rail rail_electric rail_fast ship" speed="5.24" length="3.31" shape="150.21,211.07 147.84,213.39"/>
    </edge>
    <edge id=":cluster_243485057_243507369_5599381676_5599381677_12" function="internal">
        <lane id=":cluster_243485057_243507369_5599381676_5599381677_12_0" index="0" disallow="tram rail_urban rail rail_electric rail_fast ship" speed="15.28" length="29.96" shape="139.99,206.37 169.89,208.59"/>
        <lane id=":cluster_243485057_243507369_5599381676_5599381677_12_1" index="1" disallow="tram rail_urban rail rail_electric rail_fast ship" speed="15.28" length="29.96" shape="140.39,203.20 170.25,205.41"/>
    </edge>
    <edge id=":cluster_243485057_243507369_5599381676_5599381677_14" function="internal">
        <lane id=":cluster_243485057_243507369_5599381676_5599381677_14_0" index="0" disallow="tram rail_urban rail rail_electric rail_fast ship" speed="11.64" length="12.37" shape="140.79,200.02 149.71,200.19 153.02,199.24"/>
    </edge>
    <edge id=":cluster_243485057_243507369_5599381676_5599381677_15" function="internal">
        <lane id=":cluster_243485057_243507369_5599381676_5599381677_15_0" index="0" disallow="tram rail_urban rail rail_electric rail_fast ship" speed="4.03" length="2.78" shape="140.79,200.02 142.47,199.18 142.97,198.44"/>
    </edge>
    <edge id=":cluster_243485057_243507369_5599381676_5599381677_22" function="internal">
        <lane id=":cluster_243485057_243507369_5599381676_5599381677_22_0" index="0" disallow="tram rail_urban rail rail_electric rail_fast ship" speed="11.64" length="16.66" shape="153.02,199.24 156.53,198.23 161.26,194.14 163.89,187.92"/>
    </edge>
    <edge id=":cluster_243485057_243507369_5599381676_5599381677_23" function="internal">
        <lane id=":cluster_243485057_243507369_5599381676_5599381677_23_0" index="0" disallow="tram rail_urban rail rail_electric rail_fast ship" speed="4.03" length="3.32" shape="142.97,198.44 143.12,198.21 142.73,197.11 141.31,195.88"/>
    </edge>
    <edge id=":cluster_259397231_5599381656_0" function="internal">
        <lane id=":cluster_259397231_5599381656_0_0" index="0" disallow="tram rail_urban rail rail_electric rail_fast ship" speed="13.89" length="14.36" shape="265.78,204.19 251.53,202.58"/>
        <lane id=":cluster_259397231_5599381656_0_1" index="1" disallow="tram rail_urban rail rail_electric rail_fast ship" speed="13.89" length="14.36" shape="265.42,207.37 251.16,205.76"/>
        <lane id=":cluster_259397231_5599381656_0_2" index="2" disallow="tram rail_urban rail rail_electric rail_fast ship" speed="13.89" length="14.36" shape="265.07,210.55 250.79,208.94"/>
    </edge>
    <edge id=":cluster_259397231_5599381656_3" function="internal">
        <lane id=":cluster_259397231_5599381656_3_0" index="0" disallow="tram rail_urban rail rail_electric rail_fast ship" speed="9.04" length="6.39" shape="265.07,210.55 261.07,210.99 259.18,212.43"/>
    </edge>
    <edge id=":cluster_259397231_5599381656_4" function="internal">
        <lane id=":cluster_259397231_5599381656_4_0" index="0" disallow="tram rail_urban rail rail_electric rail_fast ship" speed="4.33" length="4.11" shape="265.07,210.55 263.01,211.62 262.22,212.82 262.35,213.16"/>
    </edge>
    <edge id=":cluster_259397231_5599381656_12" function="internal">
        <lane id=":cluster_259397231_5599381656_12_0" index="0" disallow="tram rail_urban rail rail_electric rail_fast ship" speed="9.04" length="12.27" shape="259.18,212.43 258.03,213.30 255.95,217.48 254.84,223.53"/>
    </edge>
    <edge id=":cluster_259397231_5599381656_13" function="internal">
        <lane id=":cluster_259397231_5599381656_13_0" index="0" disallow="tram rail_urban rail rail_electric rail_fast ship" speed="4.33" length="3.40" shape="262.35,213.16 262.72,214.17 264.49,215.66"/>
    </edge>
    <edge id=":cluster_259397231_5599381656_5" function="internal">
        <lane id=":cluster_259397231_5599381656_5_0" index="0" disallow="tram rail_urban rail rail_electric rail_fast ship" speed="6.46" length="9.03" shape="258.03,223.82 258.60,221.41 259.81,219.77 261.65,218.92 264.13,218.84"/>
    </edge>
    <edge id=":cluster_259397231_5599381656_6" function="internal">
        <lane id=":cluster_259397231_5599381656_6_0" index="0" disallow="tram rail_urban rail rail_electric rail_fast ship" speed="9.77" length="21.27" shape="258.03,223.82 258.18,216.29 257.09,210.76 254.75,207.25 251.16,205.76"/>
        <lane id=":cluster_259397231_5599381656_6_1" index="1" disallow="tram rail_urban rail rail_electric rail_fast ship" speed="9.14" length="18.48" shape="258.03,223.82 258.05,217.68 256.85,213.15 254.43,210.24 250.79,208.94"/>
    </edge>
    <edge id=":cluster_259397231_5599381656_8" function="internal">
        <lane id=":cluster_259397231_5599381656_8_0" index="0" disallow="tram rail_urban rail rail_electric rail_fast ship" speed="6.61" length="9.18" shape="249.84,217.17 252.22,217.81 253.85,219.08 254.72,220.99 254.84,223.53"/>
    </edge>
    <edge id=":cluster_259397231_5599381656_9" function="internal">
        <lane id=":cluster_259397231_5599381656_9_0" index="0" disallow="tram rail_urban rail rail_electric rail_fast ship" speed="13.89" length="14.39" shape="249.84,217.17 264.13,218.84"/>
        <lane id=":cluster_259397231_5599381656_9_1" index="1" disallow="tram rail_urban rail rail_electric rail_fast ship" speed="13.89" length="14.39" shape="250.20,213.99 264.49,215.66"/>
    </edge>
    <edge id=":cluster_259397231_5599381656_11" function="internal">
        <lane id=":cluster_259397231_5599381656_11_0" index="0" disallow="tram rail_urban rail rail_electric rail_fast ship" speed="4.31" length="4.04" shape="250.20,213.99 252.25,212.94 253.02,211.76 252.91,211.45"/>
    </edge>
    <edge id=":cluster_259397231_5599381656_14" function="internal">
        <lane id=":cluster_259397231_5599381656_14_0" index="0" disallow="tram rail_urban rail rail_electric rail_fast ship" speed="4.31" length="3.39" shape="252.91,211.45 252.54,210.42 250.79,208.94"/>
    </edge>

    <edge id="-23924464" from="6275761343" to="259397086" name="Nallur Road" priority="3" type="highway.residential">
        <lane id="-23924464_0" index="0" disallow="tram rail_urban rail rail_electric rail_fast ship" speed="13.89" length="28.15" shape="18.18,114.25 46.31,115.40">
            <param key="origId" value="23924464"/>
        </lane>
    </edge>
    <edge id="-23924500" from="2376694448" to="cluster_259397231_5599381656" name="Evergreen Gardens" priority="3" type="highway.residential" shape="254.22,311.90 253.00,289.32 252.89,287.15 252.06,271.94 256.28,225.35 257.09,216.44">
        <lane id="-23924500_0" index="0" disallow="tram rail_urban rail rail_electric rail_fast ship" speed="13.89" length="88.25" shape="255.82,311.81 254.60,289.23 254.49,287.06 253.66,271.97 257.87,225.49 258.03,223.82">
            <param key="origId" value="23924500"/>
        </lane>
        <param key="origTo" value="5599381656"/>
    </edge>
    <edge id="174281658" from="4593387844" to="4593444784" name="Upper East Coast Road" priority="11" type="highway.secondary" spreadType="center" shape="65.69,187.81 52.78,187.19 36.62,186.32 0.33,183.94">
        <lane id="174281658_0" index="0" disallow="tram rail_urban rail rail_electric rail_fast ship" speed="16.67" length="96.02" shape="96.28,187.68 52.86,185.59 36.72,184.72 0.43,182.34">
            <param key="origId" value="174281658 633837299"/>
        </lane>
        <lane id="174281658_1" index="1" disallow="tram rail_urban rail rail_electric rail_fast ship" speed="16.67" length="96.02" shape="96.12,190.87 52.70,188.79 36.52,187.92 0.23,185.54">
            <param key="origId" value="174281658 633837299"/>
        </lane>
        <param key="origTo" value="4593444911"/>
    </edge>
    <edge id="23924464" from="259397086" to="6275761343" name="Nallur Road" priority="3" type="highway.residential">
        <lane id="23924464_0" index="0" disallow="tram rail_urban rail rail_electric rail_fast ship" speed="13.89" length="28.15" shape="46.45,112.20 18.32,111.05">
            <param key="origId" value="23924464"/>
        </lane>
    </edge>
    <edge id="23924500" from="cluster_259397231_5599381656" to="2376694448" name="Evergreen Gardens" priority="3" type="highway.residential" shape="257.09,216.44 256.28,225.35 252.06,271.94 252.89,287.15 253.00,289.32 254.22,311.90">
        <lane id="23924500_0" index="0" disallow="tram rail_urban rail rail_electric rail_fast ship" speed="13.89" length="88.71" shape="254.84,223.53 254.69,225.21 250.46,271.91 251.29,287.24 251.40,289.41 252.62,311.99">
            <param key="origId" value="23924500"/>
        </lane>
        <param key="origFrom" value="5599381656"/>
    </edge>
    <edge id="284167586" from="4675474956" to="2879240150" priority="7" type="highway.primary_link" spreadType="center" shape="243.77,204.90 227.56,192.16 224.38,189.47 217.71,183.86 207.48,174.90 200.02,167.18 194.41,158.67 186.65,143.11 180.15,120.58">
        <lane id="284167586_0" index="0" disallow="tram rail_urban rail rail_electric rail_fast ship" speed="13.89" length="76.48" shape="232.41,193.93 228.57,190.92 225.41,188.25 218.75,182.65 208.58,173.74 201.27,166.18 195.80,157.87 188.15,142.53 186.31,136.15">
            <param key="origId" value="284167586"/>
        </lane>
        <lane id="284167586_1" index="1" disallow="tram rail_urban rail rail_electric rail_fast ship" speed="13.89" length="76.48" shape="230.43,196.45 226.55,193.40 223.35,190.69 216.67,185.07 206.38,176.06 198.77,168.18 193.02,159.47 185.15,143.69 183.23,137.04">