<?xml version="1.0" encoding="UTF-8"?>

<!-- generated on 2023-07-20 11:26:13 by Eclipse SUMO netconvert Version 1.17.0
<configuration xmlns:xsi="http://www.w3.org/2001/XMLSchema-instance" xsi:noNamespaceSchemaLocation="http://sumo.dlr.de/xsd/netconvertConfiguration.xsd">

    <input>
        <sumo-net-file value="osm.net.xml.gz"/>
    </input>

    <output>
        <output-file value="osm.net.xml"/>
        <output.street-names value="true"/>
    </output>

    <processing>
        <geometry.min-radius.fix.railways value="false"/>
        <geometry.max-grade.fix value="false"/>
        <offset.disable-normalization value="true"/>
        <lefthand value="1"/>
    </processing>

    <junctions>
        <no-turnarounds value="true"/>
        <junctions.corner-detail value="5"/>
        <junctions.limit-turn-speed value="5.50"/>
        <rectangular-lane-cut value="0"/>
    </junctions>

    <pedestrian>
        <walkingareas value="0"/>
    </pedestrian>

</configuration>
-->

<net version="1.16" junctionCornerDetail="5" lefthand="true" limitTurnSpeed="5.50" xmlns:xsi="http://www.w3.org/2001/XMLSchema-instance" xsi:noNamespaceSchemaLocation="http://sumo.dlr.de/xsd/net_file.xsd">

    <location netOffset="-371126.52,-146873.82" convBoundary="0.00,0.00,864.49,333.99" origBoundary="103.841616,1.328540,103.849385,1.331561" projParameter="+proj=utm +zone=48 +ellps=WGS84 +datum=WGS84 +units=m +no_defs"/>

    <type id="highway.bridleway" priority="1" numLanes="1" speed="2.78" allow="pedestrian" oneway="1" width="2.00"/>
    <type id="highway.bus_guideway" priority="1" numLanes="1" speed="27.78" allow="bus" oneway="1"/>
    <type id="highway.cycleway" priority="1" numLanes="1" speed="5.56" allow="bicycle" oneway="0" width="1.00"/>
    <type id="highway.footway" priority="1" numLanes="1" speed="2.78" allow="pedestrian" oneway="1" width="2.00"/>
    <type id="highway.ford" priority="1" numLanes="1" speed="2.78" allow="army" oneway="0"/>
    <type id="highway.living_street" priority="2" numLanes="1" speed="2.78" disallow="tram rail_urban rail rail_electric rail_fast ship" oneway="0"/>
    <type id="highway.motorway" priority="14" numLanes="2" speed="39.44" allow="private emergency authority army vip passenger hov taxi bus coach delivery truck trailer motorcycle evehicle custom1 custom2" oneway="1"/>
    <type id="highway.motorway_link" priority="9" numLanes="1" speed="22.22" allow="private emergency authority army vip passenger hov taxi bus coach delivery truck trailer motorcycle evehicle custom1 custom2" oneway="1"/>
    <type id="highway.path" priority="1" numLanes="1" speed="5.56" allow="pedestrian bicycle" oneway="0" width="2.00"/>
    <type id="highway.pedestrian" priority="1" numLanes="1" speed="2.78" allow="pedestrian" oneway="1" width="2.00"/>
    <type id="highway.primary" priority="12" numLanes="2" speed="27.78" disallow="tram rail_urban rail rail_electric rail_fast ship" oneway="0"/>
    <type id="highway.primary_link" priority="7" numLanes="1" speed="22.22" disallow="tram rail_urban rail rail_electric rail_fast ship" oneway="0"/>
    <type id="highway.raceway" priority="15" numLanes="2" speed="83.33" allow="vip" oneway="0"/>
    <type id="highway.residential" priority="3" numLanes="1" speed="13.89" disallow="tram rail_urban rail rail_electric rail_fast ship" oneway="0"/>
    <type id="highway.secondary" priority="11" numLanes="1" speed="27.78" disallow="tram rail_urban rail rail_electric rail_fast ship" oneway="0"/>
    <type id="highway.secondary_link" priority="6" numLanes="1" speed="22.22" disallow="tram rail_urban rail rail_electric rail_fast ship" oneway="0"/>
    <type id="highway.service" priority="1" numLanes="1" speed="5.56" allow="pedestrian delivery bicycle" oneway="0"/>
    <type id="highway.stairs" priority="1" numLanes="1" speed="1.39" allow="pedestrian" oneway="1" width="2.00"/>
    <type id="highway.step" priority="1" numLanes="1" speed="1.39" allow="pedestrian" oneway="1" width="2.00"/>
    <type id="highway.steps" priority="1" numLanes="1" speed="1.39" allow="pedestrian" oneway="1" width="2.00"/>
    <type id="highway.tertiary" priority="10" numLanes="1" speed="22.22" disallow="tram rail_urban rail rail_electric rail_fast ship" oneway="0"/>
    <type id="highway.tertiary_link" priority="5" numLanes="1" speed="22.22" disallow="tram rail_urban rail rail_electric rail_fast ship" oneway="0"/>
    <type id="highway.track" priority="1" numLanes="1" speed="5.56" allow="pedestrian motorcycle moped bicycle" oneway="0"/>
    <type id="highway.trunk" priority="13" numLanes="2" speed="27.78" disallow="pedestrian bicycle tram rail_urban rail rail_electric rail_fast ship" oneway="0"/>
    <type id="highway.trunk_link" priority="8" numLanes="1" speed="22.22" disallow="pedestrian bicycle tram rail_urban rail rail_electric rail_fast ship" oneway="0"/>
    <type id="highway.unclassified" priority="4" numLanes="1" speed="13.89" disallow="tram rail_urban rail rail_electric rail_fast ship" oneway="0"/>
    <type id="highway.unsurfaced" priority="1" numLanes="1" speed="8.33" disallow="tram rail_urban rail rail_electric rail_fast ship" oneway="0"/>
    <type id="railway.highspeed" priority="21" numLanes="1" speed="69.44" allow="rail_fast" oneway="1"/>
    <type id="railway.light_rail" priority="19" numLanes="1" speed="27.78" allow="rail_urban" oneway="1"/>
    <type id="railway.preserved" priority="16" numLanes="1" speed="27.78" allow="rail" oneway="1"/>
    <type id="railway.rail" priority="20" numLanes="1" speed="44.44" allow="rail" oneway="1"/>
    <type id="railway.subway" priority="18" numLanes="1" speed="27.78" allow="rail_urban" oneway="1"/>
    <type id="railway.tram" priority="17" numLanes="1" speed="13.89" allow="tram" oneway="1"/>

    <edge id=":1223811797_0" function="internal">
        <lane id=":1223811797_0_0" index="0" allow="private emergency authority army vip passenger hov taxi bus coach delivery truck trailer motorcycle evehicle custom1 custom2" speed="13.89" length="35.23" shape="541.06,110.26 533.51,111.13 525.49,112.12 516.53,112.75 506.16,112.57"/>
        <lane id=":1223811797_0_1" index="1" allow="private emergency authority army vip passenger hov taxi bus coach delivery truck trailer motorcycle evehicle custom1 custom2" speed="13.89" length="35.23" shape="541.25,113.46 533.64,114.33 525.48,115.31 516.38,115.94 505.96,115.77"/>
    </edge>
    <edge id=":1223811797_2" function="internal">
        <lane id=":1223811797_2_0" index="0" allow="private emergency authority army vip passenger hov taxi bus coach delivery truck trailer motorcycle evehicle custom1 custom2" speed="13.89" length="35.63" shape="541.27,116.84 535.72,117.23 527.25,118.20 516.91,119.02 505.75,118.96"/>
    </edge>
    <edge id=":1717839099_0" function="internal">
        <lane id=":1717839099_0_0" index="0" allow="private emergency authority army vip passenger hov taxi bus coach delivery truck trailer motorcycle evehicle custom1 custom2" speed="13.89" length="8.05" shape="478.10,235.00 478.50,237.27 478.37,238.89 478.21,240.52 478.48,242.83"/>
        <lane id=":1717839099_0_1" index="1" allow="private emergency authority army vip passenger hov taxi bus coach delivery truck trailer motorcycle evehicle custom1 custom2" speed="13.89" length="8.05" shape="481.17,234.10 481.58,236.42 481.47,238.08 481.32,239.75 481.60,242.11"/>
        <lane id=":1717839099_0_2" index="2" allow="private emergency authority army vip passenger hov taxi bus coach delivery truck trailer motorcycle evehicle custom1 custom2" speed="13.89" length="8.05" shape="481.17,234.10 482.08,236.33 483.03,237.72 483.94,239.14 484.72,241.40"/>
    </edge>
    <edge id=":239965494_0" function="internal">
        <lane id=":239965494_0_0" index="0" allow="private emergency authority army vip passenger hov taxi bus coach delivery truck trailer motorcycle evehicle custom1 custom2" speed="13.89" length="37.58" shape="524.63,298.73 519.39,292.67 514.01,285.62 509.28,277.24 505.97,267.19"/>
        <lane id=":239965494_0_1" index="1" allow="private emergency authority army vip passenger hov taxi bus coach delivery truck trailer motorcycle evehicle custom1 custom2" speed="13.89" length="37.58" shape="521.82,300.37 516.53,294.16 511.04,286.78 506.20,278.06 502.84,267.85"/>
    </edge>
    <edge id=":239965494_2" function="internal">
        <lane id=":239965494_2_0" index="0" allow="private emergency authority army vip passenger hov taxi bus coach delivery truck trailer motorcycle evehicle custom1 custom2" speed="13.89" length="37.49" shape="517.52,302.46 514.19,293.00 511.17,284.98 508.43,276.88 505.97,267.19"/>
        <lane id=":239965494_2_1" index="1" allow="private emergency authority army vip passenger hov taxi bus coach delivery truck trailer motorcycle evehicle custom1 custom2" speed="13.89" length="37.49" shape="514.47,303.45 511.13,293.94 508.08,285.81 505.32,277.60 502.84,267.85"/>
        <lane id=":239965494_2_2" index="2" allow="private emergency authority army vip passenger hov taxi bus coach delivery truck trailer motorcycle evehicle custom1 custom2" speed="13.89" length="37.49" shape="511.43,304.45 508.08,294.88 504.99,286.63 502.20,278.31 499.71,268.51"/>
    </edge>
    <edge id=":239965551_0" function="internal">
        <lane id=":239965551_0_0" index="0" allow="private emergency authority army vip passenger hov taxi bus coach delivery truck trailer motorcycle evehicle custom1 custom2" speed="22.22" length="3.08" shape="684.82,144.48 687.98,144.31"/>
        <lane id=":239965551_0_1" index="1" allow="private emergency authority army vip passenger hov taxi bus coach delivery truck trailer motorcycle evehicle custom1 custom2" speed="22.22" length="3.08" shape="684.68,141.28 687.76,141.12"/>
        <lane id=":239965551_0_2" index="2" allow="private emergency authority army vip passenger hov taxi bus coach delivery truck trailer motorcycle evehicle custom1 custom2" speed="22.22" length="3.08" shape="684.54,138.08 687.54,137.93"/>
    </edge>
    <edge id=":239965551_3" function="internal">
        <lane id=":239965551_3_0" index="0" allow="private emergency authority army vip passenger hov taxi bus coach delivery truck trailer motorcycle evehicle custom1 custom2" speed="18.05" length="3.25" shape="684.95,147.58 688.20,147.50"/>
    </edge>
    <edge id=":245585883_0" function="internal">
        <lane id=":245585883_0_0" index="0" allow="private emergency authority army vip passenger hov taxi bus coach delivery truck trailer motorcycle evehicle custom1 custom2" speed="13.89" length="20.86" shape="562.34,157.74 583.00,154.85"/>
    </edge>
    <edge id=":245585883_1" function="internal">
        <lane id=":245585883_1_0" index="0" allow="private emergency authority army vip passenger hov taxi bus coach delivery truck trailer motorcycle evehicle custom1 custom2" speed="13.89" length="20.86" shape="562.15,154.28 566.82,154.50 572.58,154.78 578.34,154.95 583.00,154.85"/>
    </edge>
    <edge id=":2642042924_0" function="internal">
        <lane id=":2642042924_0_0" index="0" allow="private emergency authority army vip passenger hov taxi bus coach delivery truck trailer motorcycle evehicle custom1 custom2" speed="13.89" length="31.30" shape="483.94,266.68 485.51,276.31 485.55,283.97 484.61,290.73 483.23,297.65"/>
        <lane id=":2642042924_0_1" index="1" allow="private emergency authority army vip passenger hov taxi bus coach delivery truck trailer motorcycle evehicle custom1 custom2" speed="13.89" length="31.36" shape="483.94,266.68 486.01,276.31 487.17,283.98 487.35,290.75 486.49,297.68"/>
    </edge>
    <edge id=":2642042924_2" function="internal">
        <lane id=":2642042924_2_0" index="0" allow="private emergency authority army vip passenger hov taxi bus coach delivery truck trailer motorcycle evehicle custom1 custom2" speed="13.89" length="31.11" shape="483.94,266.68 491.35,297.12"/>
        <lane id=":2642042924_2_1" index="1" allow="private emergency authority army vip passenger hov taxi bus coach delivery truck trailer motorcycle evehicle custom1 custom2" speed="13.89" length="31.11" shape="487.06,265.96 494.42,296.22"/>
        <lane id=":2642042924_2_2" index="2" allow="private emergency authority army vip passenger hov taxi bus coach delivery truck trailer motorcycle evehicle custom1 custom2" speed="13.89" length="31.11" shape="490.18,265.25 497.50,295.32"/>
        <lane id=":2642042924_2_3" index="3" allow="private emergency authority army vip passenger hov taxi bus coach delivery truck trailer motorcycle evehicle custom1 custom2" speed="13.89" length="31.11" shape="490.18,265.25 492.60,273.89 494.99,279.75 497.57,285.65 500.57,294.42"/>
    </edge>
    <edge id=":4723272123_0" function="internal">
        <lane id=":4723272123_0_0" index="0" allow="private emergency authority army vip passenger hov taxi bus coach delivery truck trailer motorcycle evehicle custom1 custom2" speed="13.89" length="8.21" shape="314.44,146.07 316.83,146.39 318.42,146.99 320.00,147.59 322.39,147.91"/>
        <lane id=":4723272123_0_1" index="1" allow="private emergency authority army vip passenger hov taxi bus coach delivery truck trailer motorcycle evehicle custom1 custom2" speed="13.89" length="8.21" shape="314.44,146.07 316.85,145.89 318.47,145.39 320.08,144.89 322.49,144.71"/>
        <lane id=":4723272123_0_2" index="2" allow="private emergency authority army vip passenger hov taxi bus coach delivery truck trailer motorcycle evehicle custom1 custom2" speed="13.89" length="8.21" shape="314.54,142.87 316.94,142.69 318.56,142.19 320.18,141.69 322.58,141.51"/>
    </edge>
    <edge id=":750630950-AddedOnRampNode_0" function="internal">
        <lane id=":750630950-AddedOnRampNode_0_0" index="0" allow="private emergency authority army vip passenger hov taxi bus coach delivery truck trailer motorcycle evehicle custom1 custom2" speed="22.22" length="8.00" shape="782.36,137.73 790.34,137.17"/>
        <lane id=":750630950-AddedOnRampNode_0_1" index="1" allow="private emergency authority army vip passenger hov taxi bus coach delivery truck trailer motorcycle evehicle custom1 custom2" speed="22.22" length="8.00" shape="782.14,134.54 790.12,133.98"/>
        <lane id=":750630950-AddedOnRampNode_0_2" index="2" allow="private emergency authority army vip passenger hov taxi bus coach delivery truck trailer motorcycle evehicle custom1 custom2" speed="22.22" length="8.00" shape="781.92,131.35 789.90,130.79"/>
    </edge>
    <edge id=":7628008949_0" function="internal">
        <lane id=":7628008949_0_0" index="0" allow="private emergency authority army vip passenger hov taxi bus coach delivery truck trailer motorcycle evehicle custom1 custom2" speed="13.89" length="6.79" shape="503.30,254.57 502.97,252.59 502.93,251.22 503.05,249.83 503.20,247.81"/>
    </edge>
    <edge id=":7628008949_1" function="internal">
        <lane id=":7628008949_1_0" index="0" allow="private emergency authority army vip passenger hov taxi bus coach delivery truck trailer motorcycle evehicle custom1 custom2" speed="13.89" length="7.04" shape="500.17,255.23 499.90,253.15 499.94,251.69 499.96,250.24 499.61,248.17"/>
        <lane id=":7628008949_1_1" index="1" allow="private emergency authority army vip passenger hov taxi bus coach delivery truck trailer motorcycle evehicle custom1 custom2" speed="13.89" length="7.04" shape="497.04,255.89 496.77,253.85 496.82,252.41 496.85,250.99 496.51,248.96"/>
    </edge>
    <edge id=":886297460_0" function="internal">
        <lane id=":886297460_0_0" index="0" allow="private emergency authority army vip passenger hov taxi bus coach delivery truck trailer motorcycle evehicle custom1 custom2" speed="13.89" length="21.71" shape="358.50,148.99 364.99,149.51 369.47,150.53 373.75,151.90 379.65,153.50"/>
        <lane id=":886297460_0_1" index="1" allow="private emergency authority army vip passenger hov taxi bus coach delivery truck trailer motorcycle evehicle custom1 custom2" speed="13.89" length="22.33" shape="358.60,145.79 365.32,146.33 369.99,147.37 374.41,148.77 380.36,150.38"/>
    </edge>
    <edge id=":886297460_2" function="internal">
        <lane id=":886297460_2_0" index="0" allow="private emergency authority army vip passenger hov taxi bus coach delivery truck trailer motorcycle evehicle custom1 custom2" speed="13.89" length="22.62" shape="358.69,142.59 366.21,143.38 372.12,144.81 376.85,146.22 380.83,146.96"/>
    </edge>

    <edge id="159674664" from="7628008949" to="1223811797" name="Lorong 2 Toa Payoh" priority="9" type="highway.motorway_link" spreadType="center" shape="502.33,265.43 489.95,216.55 486.68,200.71 484.85,184.41 483.51,165.18 484.81,107.10 486.14,72.86 487.55,60.86 489.78,50.25 493.58,39.73 498.36,30.38 502.91,24.01 509.61,17.34 514.38,12.82 521.99,8.14 529.38,4.95 536.36,2.38 543.20,0.90 550.68,0.00 560.46,0.29 569.19,1.77 576.42,4.45 583.52,7.70 591.28,12.44 597.50,17.52 605.02,24.88 609.75,32.11 612.78,37.92 615.76,48.59 616.97,58.67 616.98,67.56 615.78,76.43 611.61,86.51 605.60,93.93 597.30,100.75 587.11,106.16 576.40,108.46 559.69,110.25 542.37,111.75 524.90,113.30 494.69,115.03">
        <lane id="159674664_0" index="0" allow="private emergency authority army vip passenger hov taxi bus coach delivery truck trailer motorcycle evehicle custom1 custom2" speed="13.89" length="489.83" shape="499.61,248.17 491.51,216.19 488.26,200.46 486.44,184.27 485.11,165.14 486.41,107.15 487.74,72.98 489.13,61.12 491.32,50.69 495.05,40.37 499.73,31.21 504.13,25.05 510.72,18.49 515.36,14.10 522.73,9.56 529.97,6.44 536.81,3.92 543.47,2.48 550.75,1.60 560.30,1.89 568.77,3.32 575.81,5.93 582.77,9.12 590.35,13.75 596.43,18.71 603.78,25.90 608.37,32.92 611.28,38.51 614.19,48.90 615.37,58.77 615.38,67.45 614.22,76.01 610.22,85.68 604.46,92.80 596.41,99.41 586.56,104.64 576.15,106.88 559.54,108.66 542.23,110.16 541.06,110.26">
            <param key="origId" value="159674664 106343432 159674666"/>
        </lane>
        <lane id="159674664_1" index="1" allow="private emergency authority army vip passenger hov taxi bus coach delivery truck trailer motorcycle evehicle custom1 custom2" speed="13.89" length="489.83" shape="496.51,248.96 488.39,216.91 485.10,200.96 483.26,184.55 481.91,165.22 483.21,107.05 484.54,72.74 485.97,60.60 488.24,49.81 492.11,39.09 496.99,29.55 501.69,22.97 508.50,16.19 513.40,11.54 521.25,6.72 528.79,3.46 535.91,0.84 542.93,-0.68 550.61,-1.60 560.62,-1.31 569.61,0.22 577.03,2.97 584.27,6.28 592.21,11.13 598.57,16.33 606.26,23.86 611.13,31.30 614.28,37.33 617.33,48.28 618.57,58.57 618.58,67.67 617.34,76.85 613.00,87.34 606.74,95.06 598.19,102.09 587.66,107.68 576.65,110.04 559.84,111.84 542.51,113.34 541.25,113.46">
            <param key="origId" value="159674664 106343432 159674666"/>
        </lane>
    </edge>
    <edge id="173767985" from="1223811797" to="4747522312" name="Jalan Toa Payoh" priority="9" type="highway.motorway_link" spreadType="center" shape="494.69,115.03 473.92,113.67 379.36,107.45 321.38,104.55 307.39,99.11 271.12,97.30 265.32,96.75 202.23,90.81">
        <lane id="173767985_0" index="0" allow="private emergency authority army vip passenger hov taxi bus coach delivery truck trailer motorcycle evehicle custom1 custom2" speed="13.89" length="305.44" shape="506.16,112.57 474.13,110.48 379.54,104.26 322.06,101.38 308.07,95.94 271.35,94.11 265.62,93.56 202.53,87.62">
            <param key="origId" value="173767985 479180377 479181058 479181059"/>
        </lane>
        <lane id="173767985_1" index="1" allow="private emergency authority army vip passenger hov taxi bus coach delivery truck trailer motorcycle evehicle custom1 custom2" speed="13.89" length="305.44" shape="505.96,115.77 473.92,113.67 379.36,107.45 321.38,104.55 307.39,99.11 271.12,97.30 265.32,96.75 202.23,90.81">
            <param key="origId" value="173767985 479180377 479181058 479181059"/>
        </lane>
        <lane id="173767985_2" index="2" allow="private emergency authority army vip passenger hov taxi bus coach delivery truck trailer motorcycle evehicle custom1 custom2" speed="13.89" length="305.44" shape="505.75,118.96 473.71,116.86 379.18,110.64 320.70,107.72 306.71,102.28 270.89,100.49 265.02,99.94 201.93,94.00">
            <param key="origId" value="173767985 479180377 479181058 479181059"/>
        </lane>
    </edge>
    <edge id="22310769" from="7628008949" to="245585883" priority="9" type="highway.motorway_link" spreadType="center" shape="502.33,265.43 503.64,238.94 504.64,227.09 506.13,216.43 508.03,205.87 510.64,196.12 515.44,185.96 519.87,178.78 524.16,174.00 530.68,168.61 536.89,165.33 543.60,162.44 552.73,159.75 561.55,157.85 581.41,154.97">
        <lane id="22310769_0" index="0" allow="private emergency authority army vip passenger hov taxi bus coach delivery truck trailer motorcycle evehicle custom1 custom2" speed="13.89" length="120.59" shape="503.20,247.81 503.64,238.94 504.64,227.09 506.13,216.43 508.03,205.87 510.64,196.12 515.44,185.96 519.87,178.78 524.16,174.00 530.68,168.61 536.89,165.33 543.60,162.44 552.73,159.75 561.55,157.85 562.34,157.74">
            <param key="origId" value="22310769"/>
        </lane>
    </edge>
    <edge id="258894423#0" from="2642042924" to="2642042928" priority="9" type="highway.motorway_link" spreadType="center" shape="486.51,263.56 503.20,320.45 505.43,328.04">
        <lane id="258894423#0_0" index="0" allow="private emergency authority army vip passenger hov taxi bus coach delivery truck trailer motorcycle evehicle custom1 custom2" speed="13.89" length="33.63" shape="491.35,297.12 498.59,321.80 500.82,329.39">
            <param key="origId" value="258894423"/>
        </lane>
        <lane id="258894423#0_1" index="1" allow="private emergency authority army vip passenger hov taxi bus coach delivery truck trailer motorcycle evehicle custom1 custom2" speed="13.89" length="33.63" shape="494.42,296.22 501.66,320.90 503.89,328.49">
            <param key="origId" value="258894423"/>
        </lane>
        <lane id="258894423#0_2" index="2" allow="private emergency authority army vip passenger hov taxi bus coach delivery truck trailer motorcycle evehicle custom1 custom2" speed="13.89" length="33.63" shape="497.50,295.32 504.74,320.00 506.97,327.59">
            <param key="origId" value="258894423"/>
        </lane>
        <lane id="258894423#0_3" index="3" allow="private emergency authority army vip passenger hov taxi bus coach delivery truck trailer motorcycle evehicle custom1 custom2" speed="13.89" length="33.63" shape="500.57,294.42 507.81,319.10 510.04,326.69">
            <param key="origId" value="258894423"/>
        </lane>
    </edge>
    <edge id="447712973#0" from="2651270673" to="239965494" name="Lorong 2 Toa Payoh" priority="9" type="highway.motorway_link" spreadType="center" shape="521.78,325.91 519.12,317.72 502.77,267.51">
        <lane id="447712973#0_0" index="0" allow="private emergency authority army vip passenger hov taxi bus coach delivery truck trailer motorcycle evehicle custom1 custom2" speed="13.89" length="23.61" shape="524.82,324.92 522.16,316.73 517.52,302.46">
            <param key="origId" value="447712973"/>
        </lane>
        <lane id="447712973#0_1" index="1" allow="private emergency authority army vip passenger hov taxi bus coach delivery truck trailer motorcycle evehicle custom1 custom2" speed="13.89" length="23.61" shape="521.78,325.91 519.12,317.72 514.47,303.45">
            <param key="origId" value="447712973"/>
        </lane>
        <lane id="447712973#0_2" index="2" allow="private emergency authority army vip passenger hov taxi bus coach delivery truck trailer motorcycle evehicle custom1 custom2" speed="13.89" length="23.61" shape="518.74,326.90 516.08,318.71 511.43,304.45">
            <param key="origId" value="447712973"/>
        </lane>
    </edge>
    <edge id="44839211" from="568463911" to="239965551" name="Pan-Island Expressway" priority="14" type="highway.motorway" spreadType="center" shape="33.57,105.78 83.01,115.39 139.62,120.63 215.34,129.99 304.83,131.92 319.89,132.57 350.07,134.28 458.75,140.46 473.76,141.15 491.14,141.70 574.57,144.87 644.94,142.97 686.37,141.21">
        <lane id="44839211_0" index="0" allow="private emergency authority army vip passenger hov taxi bus coach delivery truck trailer motorcycle evehicle custom1 custom2" speed="22.22" length="653.26" shape="32.96,108.92 82.56,118.56 139.28,123.81 215.11,133.19 304.73,135.12 319.73,135.77 349.89,137.47 458.59,143.66 473.64,144.35 491.03,144.90 574.55,148.07 645.05,146.17 684.82,144.48">
            <param key="origId" value="44839211 479181063 630105725 479181062 479180383 479180382 750630951"/>
        </lane>
        <lane id="44839211_1" index="1" allow="private emergency authority army vip passenger hov taxi bus coach delivery truck trailer motorcycle evehicle custom1 custom2" speed="22.22" length="653.26" shape="33.57,105.78 83.01,115.39 139.62,120.63 215.34,129.99 304.83,131.92 319.89,132.57 350.07,134.28 458.75,140.46 473.76,141.15 491.14,141.70 574.57,144.87 644.94,142.97 684.68,141.28">
            <param key="origId" value="44839211 479181063 630105725 479181062 479180383 479180382 750630951"/>
        </lane>
        <lane id="44839211_2" index="2" allow="private emergency authority army vip passenger hov taxi bus coach delivery truck trailer motorcycle evehicle custom1 custom2" speed="22.22" length="653.26" shape="34.18,102.64 83.46,112.22 139.96,117.45 215.57,126.79 304.93,128.72 320.05,129.37 350.25,131.09 458.91,137.26 473.88,137.95 491.25,138.50 574.59,141.67 644.83,139.77 684.54,138.08">
            <param key="origId" value="44839211 479181063 630105725 479181062 479180383 479180382 750630951"/>
        </lane>
        <param key="ref" value="PIE"/>
    </edge>
    <edge id="44839219" from="245585757" to="4723272123" name="Jalan Toa Payoh" priority="9" type="highway.motorway_link" spreadType="center" shape="0.00,127.57 46.59,137.40 95.66,142.21 248.23,142.50 305.84,144.22 318.49,144.59">
        <lane id="44839219_0" index="0" allow="private emergency authority army vip passenger hov taxi bus coach delivery truck trailer motorcycle evehicle custom1 custom2" speed="13.89" length="315.78" shape="-0.33,129.14 46.35,138.98 95.58,143.81 248.20,144.10 305.79,145.82 314.44,146.07">
            <param key="origId" value="44839219 479181064"/>
        </lane>
        <lane id="44839219_1" index="1" allow="private emergency authority army vip passenger hov taxi bus coach delivery truck trailer motorcycle evehicle custom1 custom2" speed="13.89" length="315.78" shape="0.33,126.00 46.83,135.82 95.74,140.61 248.26,140.90 305.89,142.62 314.54,142.87">
            <param key="origId" value="44839219 479181064"/>
        </lane>
    </edge>
    <edge id="44879378" from="886297460" to="1717839099" priority="9" type="highway.motorway_link" spreadType="center" shape="352.32,145.60 411.38,159.12 440.23,168.53 452.04,174.57 458.63,179.99 464.54,187.07 468.13,195.26 480.73,238.30">
        <lane id="44879378_0" index="0" allow="private emergency authority army vip passenger hov taxi bus coach delivery truck trailer motorcycle evehicle custom1 custom2" speed="13.89" length="143.43" shape="379.65,153.50 410.95,160.66 439.61,170.01 451.16,175.92 457.50,181.13 463.17,187.92 466.62,195.81 478.10,235.00">
            <param key="origId" value="44879378"/>
        </lane>
        <lane id="44879378_1" index="1" allow="private emergency authority army vip passenger hov taxi bus coach delivery truck trailer motorcycle evehicle custom1 custom2" speed="13.89" length="143.43" shape="380.36,150.38 411.81,157.58 440.85,167.05 452.92,173.22 459.76,178.85 465.91,186.22 469.64,194.71 481.17,234.10">
            <param key="origId" value="44879378"/>
        </lane>
    </edge>
    <edge id="464150147" from="5184048043" to="239965494" priority="9" type="highway.motorway_link" spreadType="center" shape="532.02,307.42 528.43,304.55 524.02,300.47 519.20,294.89 513.89,286.64 502.77,267.51">
        <lane id="464150147_0" index="0" allow="private emergency authority army vip passenger hov taxi bus coach delivery truck trailer motorcycle evehicle custom1 custom2" speed="13.89" length="11.82" shape="533.02,306.17 529.47,303.34 525.17,299.36 524.63,298.73">
            <param key="origId" value="464150147"/>
        </lane>
        <lane id="464150147_1" index="1" allow="private emergency authority army vip passenger hov taxi bus coach delivery truck trailer motorcycle evehicle custom1 custom2" speed="13.89" length="11.82" shape="531.02,308.67 527.39,305.76 522.87,301.58 521.82,300.37">
            <param key="origId" value="464150147"/>
        </lane>
    </edge>
    <edge id="464150149" from="2642042924" to="2642042938" priority="9" type="highway.motorway_link" spreadType="center" shape="486.51,263.56 486.43,279.66 486.20,285.75 485.36,295.06 483.92,302.59 481.64,308.92 478.76,314.52 472.66,320.80 462.32,329.20 455.56,333.99">
        <lane id="464150149_0" index="0" allow="private emergency authority army vip passenger hov taxi bus coach delivery truck trailer motorcycle evehicle custom1 custom2" speed="13.89" length="48.40" shape="483.23,297.65 482.37,302.17 480.17,308.28 477.45,313.58 471.58,319.62 461.35,327.92 454.63,332.68">
            <param key="origId" value="464150149"/>
        </lane>
        <lane id="464150149_1" index="1" allow="private emergency authority army vip passenger hov taxi bus coach delivery truck trailer motorcycle evehicle custom1 custom2" speed="13.89" length="48.40" shape="486.49,297.68 485.47,303.01 483.11,309.56 480.07,315.46 473.74,321.98 463.29,330.48 456.49,335.30">
            <param key="origId" value="464150149"/>
        </lane>
    </edge>