<?xml version="1.0" encoding="UTF-8"?>

<!-- generated on 2023-07-17 11:40:35 by Eclipse SUMO netconvert Version 1.17.0
<configuration xmlns:xsi="http://www.w3.org/2001/XMLSchema-instance" xsi:noNamespaceSchemaLocation="http://sumo.dlr.de/xsd/netconvertConfiguration.xsd">

    <input>
        <sumo-net-file value="osm.net.xml.gz"/>
    </input>

    <output>
        <output-file value="osm.net.xml"/>
        <output.street-names value="true"/>
    </output>

    <processing>
        <geometry.min-radius.fix.railways value="false"/>
        <geometry.max-grade.fix value="false"/>
        <offset.disable-normalization value="true"/>
        <lefthand value="1"/>
    </processing>

    <junctions>
        <no-turnarounds value="true"/>
        <junctions.corner-detail value="5"/>
        <junctions.limit-turn-speed value="5.50"/>
        <rectangular-lane-cut value="0"/>
    </junctions>

    <pedestrian>
        <walkingareas value="0"/>
    </pedestrian>

</configuration>
-->

<net version="1.16" junctionCornerDetail="5" lefthand="true" limitTurnSpeed="5.50" xmlns:xsi="http://www.w3.org/2001/XMLSchema-instance" xsi:noNamespaceSchemaLocation="http://sumo.dlr.de/xsd/net_file.xsd">

    <location netOffset="-375695.46,-143580.94" convBoundary="0.00,0.00,605.43,634.10" origBoundary="103.882692,1.298772,103.888132,1.304507" projParameter="+proj=utm +zone=48 +ellps=WGS84 +datum=WGS84 +units=m +no_defs"/>

    <type id="highway.bridleway" priority="1" numLanes="1" speed="2.78" allow="pedestrian" oneway="1" width="2.00"/>
    <type id="highway.bus_guideway" priority="1" numLanes="1" speed="27.78" allow="bus" oneway="1"/>
    <type id="highway.cycleway" priority="1" numLanes="1" speed="5.56" allow="bicycle" oneway="0" width="1.00"/>
    <type id="highway.footway" priority="1" numLanes="1" speed="2.78" allow="pedestrian" oneway="1" width="2.00"/>
    <type id="highway.ford" priority="1" numLanes="1" speed="2.78" allow="army" oneway="0"/>
    <type id="highway.living_street" priority="2" numLanes="1" speed="2.78" disallow="tram rail_urban rail rail_electric rail_fast ship" oneway="0"/>
    <type id="highway.motorway" priority="14" numLanes="2" speed="39.44" allow="private emergency authority army vip passenger hov taxi bus coach delivery truck trailer motorcycle evehicle custom1 custom2" oneway="1"/>
    <type id="highway.motorway_link" priority="9" numLanes="1" speed="22.22" allow="private emergency authority army vip passenger hov taxi bus coach delivery truck trailer motorcycle evehicle custom1 custom2" oneway="1"/>
    <type id="highway.path" priority="1" numLanes="1" speed="5.56" allow="pedestrian bicycle" oneway="0" width="2.00"/>
    <type id="highway.pedestrian" priority="1" numLanes="1" speed="2.78" allow="pedestrian" oneway="1" width="2.00"/>
    <type id="highway.primary" priority="12" numLanes="2" speed="27.78" disallow="tram rail_urban rail rail_electric rail_fast ship" oneway="0"/>
    <type id="highway.primary_link" priority="7" numLanes="1" speed="22.22" disallow="tram rail_urban rail rail_electric rail_fast ship" oneway="0"/>
    <type id="highway.raceway" priority="15" numLanes="2" speed="83.33" allow="vip" oneway="0"/>
    <type id="highway.residential" priority="3" numLanes="1" speed="13.89" disallow="tram rail_urban rail rail_electric rail_fast ship" oneway="0"/>
    <type id="highway.secondary" priority="11" numLanes="1" speed="27.78" disallow="tram rail_urban rail rail_electric rail_fast ship" oneway="0"/>
    <type id="highway.secondary_link" priority="6" numLanes="1" speed="22.22" disallow="tram rail_urban rail rail_electric rail_fast ship" oneway="0"/>
    <type id="highway.service" priority="1" numLanes="1" speed="5.56" allow="pedestrian delivery bicycle" oneway="0"/>
    <type id="highway.stairs" priority="1" numLanes="1" speed="1.39" allow="pedestrian" oneway="1" width="2.00"/>
    <type id="highway.step" priority="1" numLanes="1" speed="1.39" allow="pedestrian" oneway="1" width="2.00"/>
    <type id="highway.steps" priority="1" numLanes="1" speed="1.39" allow="pedestrian" oneway="1" width="2.00"/>
    <type id="highway.tertiary" priority="10" numLanes="1" speed="22.22" disallow="tram rail_urban rail rail_electric rail_fast ship" oneway="0"/>
    <type id="highway.tertiary_link" priority="5" numLanes="1" speed="22.22" disallow="tram rail_urban rail rail_electric rail_fast ship" oneway="0"/>
    <type id="highway.track" priority="1" numLanes="1" speed="5.56" allow="pedestrian motorcycle moped bicycle" oneway="0"/>
    <type id="highway.trunk" priority="13" numLanes="2" speed="27.78" disallow="pedestrian bicycle tram rail_urban rail rail_electric rail_fast ship" oneway="0"/>
    <type id="highway.trunk_link" priority="8" numLanes="1" speed="22.22" disallow="pedestrian bicycle tram rail_urban rail rail_electric rail_fast ship" oneway="0"/>
    <type id="highway.unclassified" priority="4" numLanes="1" speed="13.89" disallow="tram rail_urban rail rail_electric rail_fast ship" oneway="0"/>
    <type id="highway.unsurfaced" priority="1" numLanes="1" speed="8.33" disallow="tram rail_urban rail rail_electric rail_fast ship" oneway="0"/>
    <type id="railway.highspeed" priority="21" numLanes="1" speed="69.44" allow="rail_fast" oneway="1"/>
    <type id="railway.light_rail" priority="19" numLanes="1" speed="27.78" allow="rail_urban" oneway="1"/>
    <type id="railway.preserved" priority="16" numLanes="1" speed="27.78" allow="rail" oneway="1"/>
    <type id="railway.rail" priority="20" numLanes="1" speed="44.44" allow="rail" oneway="1"/>
    <type id="railway.subway" priority="18" numLanes="1" speed="27.78" allow="rail_urban" oneway="1"/>
    <type id="railway.tram" priority="17" numLanes="1" speed="13.89" allow="tram" oneway="1"/>

    <edge id=":243474846_0" function="internal">
        <lane id=":243474846_0_0" index="0" disallow="tram rail_urban rail rail_electric rail_fast ship" speed="15.28" length="22.10" shape="232.29,418.60 233.19,412.20 234.73,408.01 236.98,404.00 239.99,398.15"/>
        <lane id=":243474846_0_1" index="1" disallow="tram rail_urban rail rail_electric rail_fast ship" speed="15.28" length="23.24" shape="229.10,418.36 230.03,411.63 231.61,407.21 233.93,402.98 237.08,396.82"/>
        <lane id=":243474846_0_2" index="2" disallow="tram rail_urban rail rail_electric rail_fast ship" speed="15.28" length="24.37" shape="225.90,418.13 226.86,411.06 228.49,406.41 230.89,401.96 234.17,395.49"/>
    </edge>
    <edge id=":243474846_3" function="internal">
        <lane id=":243474846_3_0" index="0" disallow="tram rail_urban rail rail_electric rail_fast ship" speed="16.67" length="25.61" shape="225.90,418.13 226.92,410.20 228.29,404.47 229.56,399.26 230.32,392.90"/>
        <lane id=":243474846_3_1" index="1" disallow="tram rail_urban rail rail_electric rail_fast ship" speed="16.67" length="25.61" shape="222.71,417.90 223.73,410.00 225.09,404.29 226.37,399.10 227.12,392.75"/>
    </edge>
    <edge id=":243474883_0" function="internal">
        <lane id=":243474883_0_0" index="0" disallow="tram rail_urban rail rail_electric rail_fast ship" speed="10.74" length="10.94" shape="239.03,253.21 236.53,254.89 234.00,255.99 231.45,256.52 228.88,256.46"/>
    </edge>
    <edge id=":243474883_1" function="internal">
        <lane id=":243474883_1_0" index="0" disallow="tram rail_urban rail rail_electric rail_fast ship" speed="16.67" length="11.30" shape="239.03,253.21 236.47,255.47 235.01,257.31 233.78,259.37 231.92,262.29"/>
        <lane id=":243474883_1_1" index="1" disallow="tram rail_urban rail rail_electric rail_fast ship" speed="16.67" length="11.30" shape="241.02,255.71 238.52,257.95 237.12,259.78 235.95,261.83 234.14,264.70"/>
        <lane id=":243474883_1_2" index="2" disallow="tram rail_urban rail rail_electric rail_fast ship" speed="16.67" length="11.30" shape="243.00,258.22 240.58,260.42 239.24,262.25 238.12,264.28 236.36,267.11"/>
        <lane id=":243474883_1_3" index="3" disallow="tram rail_urban rail rail_electric rail_fast ship" speed="16.67" length="11.30" shape="244.99,260.73 242.63,262.90 241.35,264.72 240.29,266.74 238.58,269.52"/>
    </edge>
    <edge id=":243475018_0" function="internal">
        <lane id=":243475018_0_0" index="0" disallow="tram rail_urban rail rail_electric rail_fast ship" speed="16.67" length="15.68" shape="196.02,505.32 194.88,509.60 193.92,512.47 192.76,515.28 190.99,519.34"/>
        <lane id=":243475018_0_1" index="1" disallow="tram rail_urban rail rail_electric rail_fast ship" speed="16.67" length="15.68" shape="199.12,506.11 197.94,510.53 196.96,513.50 195.76,516.41 193.93,520.61"/>
        <lane id=":243475018_0_2" index="2" disallow="tram rail_urban rail rail_electric rail_fast ship" speed="16.67" length="15.68" shape="202.22,506.89 201.01,511.46 199.99,514.53 198.75,517.53 196.87,521.87"/>
        <lane id=":243475018_0_3" index="3" disallow="tram rail_urban rail rail_electric rail_fast ship" speed="16.67" length="15.68" shape="205.33,507.68 204.07,512.39 203.03,515.56 201.75,518.66 199.81,523.13"/>
    </edge>
    <edge id=":243475018_4" function="internal">
        <lane id=":243475018_4_0" index="0" disallow="tram rail_urban rail rail_electric rail_fast ship" speed="5.92" length="9.10" shape="187.24,513.12 189.80,513.69 191.28,514.92 191.67,516.81 190.99,519.34"/>
        <lane id=":243475018_4_1" index="1" disallow="tram rail_urban rail rail_electric rail_fast ship" speed="7.55" length="15.61" shape="187.50,509.93 191.89,510.92 194.43,513.03 195.11,516.26 193.93,520.61"/>
        <lane id=":243475018_4_2" index="2" disallow="tram rail_urban rail rail_electric rail_fast ship" speed="8.25" length="18.91" shape="187.50,509.93 193.34,511.10 196.85,513.48 198.02,517.07 196.87,521.87"/>
    </edge>
    <edge id=":243479406_0" function="internal">
        <lane id=":243479406_0_0" index="0" disallow="tram rail_urban rail rail_electric rail_fast ship" speed="15.28" length="17.29" shape="333.46,225.30 316.17,226.47"/>
        <lane id=":243479406_0_1" index="1" disallow="tram rail_urban rail rail_electric rail_fast ship" speed="15.28" length="17.29" shape="333.65,228.49 316.39,229.66"/>
        <lane id=":243479406_0_2" index="2" disallow="tram rail_urban rail rail_electric rail_fast ship" speed="15.28" length="17.29" shape="333.84,231.69 316.62,232.85"/>
    </edge>
    <edge id=":243479406_3" function="internal">
        <lane id=":243479406_3_0" index="0" disallow="tram rail_urban rail rail_electric rail_fast ship" speed="16.67" length="15.84" shape="328.25,236.14 327.57,220.02"/>
        <lane id=":243479406_3_1" index="1" disallow="tram rail_urban rail rail_electric rail_fast ship" speed="16.67" length="15.84" shape="325.05,236.12 324.38,220.29"/>
        <lane id=":243479406_3_2" index="2" disallow="tram rail_urban rail rail_electric rail_fast ship" speed="16.67" length="15.84" shape="321.85,236.10 321.19,220.57"/>
    </edge>
    <edge id=":243479406_6" function="internal">
        <lane id=":243479406_6_0" index="0" disallow="tram rail_urban rail rail_electric rail_fast ship" speed="6.56" length="9.76" shape="321.85,236.10 321.52,233.13 320.51,231.07 318.80,229.91 316.39,229.66"/>
        <lane id=":243479406_6_1" index="1" disallow="tram rail_urban rail rail_electric rail_fast ship" speed="5.69" length="7.07" shape="321.85,236.10 321.53,234.53 320.55,233.47 318.91,232.91 316.62,232.85"/>
    </edge>
    <edge id=":2464876911_0" function="internal">
        <lane id=":2464876911_0_0" index="0" disallow="tram rail_urban rail rail_electric rail_fast ship" speed="15.28" length="17.44" shape="331.98,204.11 329.77,201.15 327.82,197.89 326.35,193.77 325.58,188.25"/>
    </edge>
    <edge id=":2464876911_1" function="internal">
        <lane id=":2464876911_1_0" index="0" disallow="tram rail_urban rail rail_electric rail_fast ship" speed="16.67" length="17.48" shape="326.68,205.67 325.58,188.25"/>
        <lane id=":2464876911_1_1" index="1" disallow="tram rail_urban rail rail_electric rail_fast ship" speed="16.67" length="17.48" shape="323.49,205.87 322.38,188.42"/>
        <lane id=":2464876911_1_2" index="2" disallow="tram rail_urban rail rail_electric rail_fast ship" speed="16.67" length="17.48" shape="320.30,206.07 319.19,188.60"/>
    </edge>
    <edge id=":247008179_0" function="internal">
        <lane id=":247008179_0_0" index="0" disallow="tram rail_urban rail rail_electric rail_fast ship" speed="13.89" length="8.00" shape="294.61,326.27 296.25,324.48 297.65,323.48 299.00,322.45 300.52,320.57"/>
        <lane id=":247008179_0_1" index="1" disallow="tram rail_urban rail rail_electric rail_fast ship" speed="13.89" length="8.00" shape="292.04,324.36 293.65,322.61 295.02,321.65 296.35,320.66 297.84,318.83"/>
        <lane id=":247008179_0_2" index="2" disallow="tram rail_urban rail rail_electric rail_fast ship" speed="13.89" length="8.00" shape="289.47,322.46 291.05,320.75 292.39,319.82 293.70,318.87 295.16,317.08"/>
        <lane id=":247008179_0_3" index="3" disallow="tram rail_urban rail rail_electric rail_fast ship" speed="13.89" length="8.00" shape="289.47,322.46 290.62,320.49 291.05,318.95 291.44,317.38 292.47,315.34"/>
    </edge>
    <edge id=":247008191_0" function="internal">
        <lane id=":247008191_0_0" index="0" disallow="tram rail_urban rail rail_electric rail_fast ship" speed="13.89" length="16.63" shape="310.93,304.57 313.77,300.67 315.95,298.14 317.86,295.46 319.87,291.14"/>
        <lane id=":247008191_0_1" index="1" disallow="tram rail_urban rail rail_electric rail_fast ship" speed="13.89" length="16.63" shape="308.25,302.82 311.14,298.81 313.33,296.18 315.24,293.40 317.29,288.96"/>
        <lane id=":247008191_0_2" index="2" disallow="tram rail_urban rail rail_electric rail_fast ship" speed="13.89" length="16.63" shape="305.56,301.08 308.51,296.95 310.71,294.23 312.63,291.35 314.70,286.78"/>
    </edge>
    <edge id=":247008191_3" function="internal">
        <lane id=":247008191_3_0" index="0" disallow="tram rail_urban rail rail_electric rail_fast ship" speed="13.89" length="16.27" shape="305.56,301.08 307.94,296.95 308.98,293.83 309.40,290.48 309.89,285.66"/>
        <lane id=":247008191_3_1" index="1" disallow="tram rail_urban rail rail_electric rail_fast ship" speed="13.89" length="14.89" shape="302.88,299.33 305.04,295.56 305.95,292.69 306.29,289.61 306.73,285.20"/>
    </edge>
    <edge id=":248416535_0" function="internal">
        <lane id=":248416535_0_0" index="0" disallow="tram rail_urban rail rail_electric rail_fast ship" speed="11.11" length="3.59" shape="53.36,256.96 52.38,257.38 51.68,257.60 50.95,257.69 49.89,257.74"/>
    </edge>
    <edge id=":248416535_1" function="internal">
        <lane id=":248416535_1_0" index="0" disallow="tram rail_urban rail rail_electric rail_fast ship" speed="11.11" length="4.17" shape="49.98,260.94 51.22,260.90 52.07,260.91 52.90,261.06 54.09,261.40"/>
    </edge>
    <edge id=":258304855_0" function="internal">
        <lane id=":258304855_0_0" index="0" disallow="tram rail_urban rail rail_electric rail_fast ship" speed="13.31" length="13.15" shape="240.07,397.97 242.24,394.84 244.80,393.41 247.71,392.64 250.92,391.50"/>
    </edge>
    <edge id=":258304855_1" function="internal">
        <lane id=":258304855_1_0" index="0" disallow="tram rail_urban rail rail_electric rail_fast ship" speed="13.89" length="13.20" shape="240.07,397.97 241.92,394.83 243.77,393.06 245.82,391.42 248.31,388.66"/>
        <lane id=":258304855_1_1" index="1" disallow="tram rail_urban rail rail_electric rail_fast ship" speed="13.89" length="13.20" shape="237.16,396.64 239.10,393.32 241.00,391.43 243.13,389.68 245.74,386.75"/>
        <lane id=":258304855_1_2" index="2" disallow="tram rail_urban rail rail_electric rail_fast ship" speed="13.89" length="13.20" shape="234.25,395.31 236.27,391.81 238.24,389.80 240.45,387.93 243.17,384.84"/>
    </edge>
    <edge id=":258305026_0" function="internal">
        <lane id=":258305026_0_0" index="0" disallow="tram rail_urban rail rail_electric rail_fast ship" speed="13.89" length="14.42" shape="331.97,386.85 317.57,386.22"/>
    </edge>
    <edge id=":258305026_1" function="internal">
        <lane id=":258305026_1_0" index="0" disallow="tram rail_urban rail rail_electric rail_fast ship" speed="7.99" length="4.09" shape="331.97,386.85 328.09,387.23 327.92,387.31"/>
    </edge>
    <edge id=":258305026_6" function="internal">
        <lane id=":258305026_6_0" index="0" disallow="tram rail_urban rail rail_electric rail_fast ship" speed="7.99" length="10.14" shape="327.92,387.31 325.27,388.76 323.51,391.44 322.81,395.28"/>
    </edge>
    <edge id=":258305026_2" function="internal">
        <lane id=":258305026_2_0" index="0" disallow="tram rail_urban rail rail_electric rail_fast ship" speed="6.49" length="9.03" shape="326.01,395.40 326.45,392.96 327.57,391.26 329.36,390.29 331.83,390.05"/>
    </edge>
    <edge id=":258305026_3" function="internal">
        <lane id=":258305026_3_0" index="0" disallow="tram rail_urban rail rail_electric rail_fast ship" speed="8.02" length="14.21" shape="326.01,395.40 325.60,391.52 324.06,388.70 321.38,386.93 317.57,386.22"/>
    </edge>
    <edge id=":258305026_4" function="internal">
        <lane id=":258305026_4_0" index="0" disallow="tram rail_urban rail rail_electric rail_fast ship" speed="6.53" length="9.06" shape="317.43,389.42 319.86,389.87 321.57,391.00 322.55,392.80 322.81,395.28"/>
    </edge>
    <edge id=":258305026_5" function="internal">
        <lane id=":258305026_5_0" index="0" disallow="tram rail_urban rail rail_electric rail_fast ship" speed="13.89" length="14.41" shape="317.43,389.42 331.83,390.05"/>
    </edge>
    <edge id=":258305038_0" function="internal">
        <lane id=":258305038_0_0" index="0" disallow="tram rail_urban rail rail_electric rail_fast ship" speed="13.89" length="13.95" shape="319.33,482.04 318.27,495.95"/>
    </edge>
    <edge id=":258305038_1" function="internal">
        <lane id=":258305038_1_0" index="0" disallow="tram rail_urban rail rail_electric rail_fast ship" speed="8.00" length="3.85" shape="319.33,482.04 319.71,485.86"/>
    </edge>
    <edge id=":258305038_6" function="internal">
        <lane id=":258305038_6_0" index="0" disallow="tram rail_urban rail rail_electric rail_fast ship" speed="8.00" length="10.23" shape="319.71,485.86 321.23,488.67 323.88,490.44 327.66,491.19"/>
    </edge>
    <edge id=":258305038_2" function="internal">
        <lane id=":258305038_2_0" index="0" disallow="tram rail_urban rail rail_electric rail_fast ship" speed="6.51" length="8.96" shape="327.83,487.99 325.42,487.52 323.74,486.39 322.77,484.60 322.53,482.17"/>
    </edge>
    <edge id=":258305038_3" function="internal">
        <lane id=":258305038_3_0" index="0" disallow="tram rail_urban rail rail_electric rail_fast ship" speed="8.13" length="14.01" shape="327.83,487.99 324.00,488.32 321.13,489.75 319.22,492.29 318.27,495.95"/>
    </edge>
    <edge id=":258305038_4" function="internal">
        <lane id=":258305038_4_0" index="0" disallow="tram rail_urban rail rail_electric rail_fast ship" speed="6.66" length="9.07" shape="321.45,496.31 322.06,493.96 323.31,492.32 325.17,491.39 327.66,491.19"/>
    </edge>
    <edge id=":258305038_5" function="internal">
        <lane id=":258305038_5_0" index="0" disallow="tram rail_urban rail rail_electric rail_fast ship" speed="13.89" length="14.18" shape="321.45,496.31 322.53,482.17"/>
    </edge>
    <edge id=":4302454244_0" function="internal">
        <lane id=":4302454244_0_0" index="0" disallow="tram rail_urban rail rail_electric rail_fast ship" speed="11.11" length="10.38" shape="41.05,257.05 38.18,255.97 36.17,255.12 34.42,253.90 32.36,251.71"/>
    </edge>
    <edge id=":4302454244_1" function="internal">
        <lane id=":4302454244_1_0" index="0" disallow="tram rail_urban rail rail_electric rail_fast ship" speed="8.86" length="11.96" shape="41.05,257.05 39.03,256.81 36.64,257.55 33.87,259.28 30.72,262.00"/>
    </edge>
    <edge id=":4302454244_2" function="internal">
        <lane id=":4302454244_2_0" index="0" disallow="tram rail_urban rail rail_electric rail_fast ship" speed="6.51" length="8.59" shape="30.40,254.35 31.81,256.48 32.33,258.46 31.97,260.30 30.72,262.00"/>
    </edge>
    <edge id=":4302454244_3" function="internal">
        <lane id=":4302454244_3_0" index="0" disallow="tram rail_urban rail rail_electric rail_fast ship" speed="11.11" length="11.20" shape="30.40,254.35 32.58,256.59 34.59,257.92 36.87,258.88 39.85,260.02"/>
    </edge>
    <edge id=":4302454783_0" function="internal">
        <lane id=":4302454783_0_0" index="0" disallow="tram rail_urban rail rail_electric rail_fast ship" speed="16.67" length="12.28" shape="222.07,278.60 220.48,281.97 219.31,284.25 218.37,286.61 217.45,290.20"/>
        <lane id=":4302454783_0_1" index="1" disallow="tram rail_urban rail rail_electric rail_fast ship" speed="16.67" length="12.28" shape="225.20,279.45 223.47,282.70 222.31,284.95 221.45,287.31 220.58,290.86"/>
        <lane id=":4302454783_0_2" index="2" disallow="tram rail_urban rail rail_electric rail_fast ship" speed="16.67" length="12.28" shape="228.36,280.31 226.64,283.50 225.46,285.71 224.58,288.02 223.72,291.52"/>
        <lane id=":4302454783_0_3" index="3" disallow="tram rail_urban rail rail_electric rail_fast ship" speed="16.67" length="12.28" shape="231.52,281.17 229.80,284.31 228.62,286.48 227.71,288.74 226.85,292.18"/>
    </edge>
    <edge id=":4302454783_4" function="internal">
        <lane id=":4302454783_4_0" index="0" disallow="tram rail_urban rail rail_electric rail_fast ship" speed="13.01" length="12.99" shape="215.51,278.57 216.92,281.46 217.77,283.90 217.98,286.58 217.45,290.20"/>
        <lane id=":4302454783_4_1" index="1" disallow="tram rail_urban rail rail_electric rail_fast ship" speed="13.87" length="12.99" shape="215.51,278.57 217.43,281.46 219.39,283.95 220.68,286.82 220.58,290.86"/>
    </edge>
    <edge id=":4594226201_0" function="internal">
        <lane id=":4594226201_0_0" index="0" disallow="tram rail_urban rail rail_electric rail_fast ship" speed="12.83" length="7.90" shape="359.04,223.16 356.77,222.97 355.29,222.39 353.91,221.44 351.94,220.15"/>
    </edge>
    <edge id=":4594226201_1" function="internal">
        <lane id=":4594226201_1_0" index="0" disallow="tram rail_urban rail rail_electric rail_fast ship" speed="13.89" length="7.82" shape="359.04,223.16 356.66,223.26 355.04,223.47 353.42,223.74 351.05,223.99"/>
        <lane id=":4594226201_1_1" index="1" disallow="tram rail_urban rail rail_electric rail_fast ship" speed="13.89" length="7.82" shape="359.06,226.36 356.74,226.46 355.17,226.67 353.59,226.94 351.29,227.18"/>
        <lane id=":4594226201_1_2" index="2" disallow="tram rail_urban rail rail_electric rail_fast ship" speed="13.89" length="7.82" shape="359.07,229.56 356.82,229.66 355.29,229.87 353.76,230.13 351.52,230.38"/>
    </edge>
    <edge id=":4594226204_0" function="internal">
        <lane id=":4594226204_0_0" index="0" disallow="tram rail_urban rail rail_electric rail_fast ship" speed="15.28" length="15.81" shape="328.15,252.15 328.25,236.34"/>
        <lane id=":4594226204_0_1" index="1" disallow="tram rail_urban rail rail_electric rail_fast ship" speed="15.28" length="15.81" shape="324.95,252.13 325.05,236.32"/>
        <lane id=":4594226204_0_2" index="2" disallow="tram rail_urban rail rail_electric rail_fast ship" speed="15.28" length="15.81" shape="321.75,252.10 321.85,236.30"/>
    </edge>
    <edge id=":4594226204_3" function="internal">
        <lane id=":4594226204_3_0" index="0" disallow="tram rail_urban rail rail_electric rail_fast ship" speed="13.89" length="17.00" shape="317.08,246.89 333.99,245.94"/>
        <lane id=":4594226204_3_1" index="1" disallow="tram rail_urban rail rail_electric rail_fast ship" speed="13.89" length="17.00" shape="316.87,243.69 333.85,242.75"/>
        <lane id=":4594226204_3_2" index="2" disallow="tram rail_urban rail rail_electric rail_fast ship" speed="13.89" length="17.00" shape="316.67,240.50 333.71,239.55"/>
    </edge>
    <edge id=":4684162954_0" function="internal">
        <lane id=":4684162954_0_0" index="0" disallow="tram rail_urban rail rail_electric rail_fast ship" speed="16.67" length="7.92" shape="270.97,257.85 272.97,256.84 274.53,256.52 276.11,256.24 278.21,255.37"/>
        <lane id=":4684162954_0_1" index="1" disallow="tram rail_urban rail rail_electric rail_fast ship" speed="16.67" length="7.92" shape="269.21,255.18 271.28,254.12 272.88,253.77 274.51,253.47 276.67,252.57"/>
        <lane id=":4684162954_0_2" index="2" disallow="tram rail_urban rail rail_electric rail_fast ship" speed="16.67" length="7.92" shape="269.21,255.18 271.06,253.67 272.11,252.37 273.19,251.11 275.13,249.76"/>
    </edge>
    <edge id=":4684420216_0" function="internal">
        <lane id=":4684420216_0_0" index="0" disallow="tram rail_urban rail rail_electric rail_fast ship" speed="10.52" length="4.96" shape="276.99,383.58 275.55,383.42 274.59,383.11 273.71,382.58 272.49,381.75"/>
    </edge>
    <edge id=":4684420216_1" function="internal">
        <lane id=":4684420216_1_0" index="0" disallow="tram rail_urban rail rail_electric rail_fast ship" speed="13.89" length="13.73" shape="263.08,386.06 266.62,386.01 269.93,386.19 273.23,386.49 276.77,386.78"/>
    </edge>
    <edge id=":4684420219_0" function="internal">
        <lane id=":4684420219_0_0" index="0" disallow="tram rail_urban rail rail_electric rail_fast ship" speed="6.77" length="7.67" shape="264.84,373.83 263.78,371.99 263.39,370.20 263.66,368.45 264.59,366.73"/>
    </edge>
    <edge id=":4684420219_1" function="internal">
        <lane id=":4684420219_1_0" index="0" disallow="tram rail_urban rail rail_electric rail_fast ship" speed="13.89" length="8.18" shape="259.71,373.30 264.59,366.73"/>
        <lane id=":4684420219_1_1" index="1" disallow="tram rail_urban rail rail_electric rail_fast ship" speed="13.89" length="8.18" shape="257.14,371.39 262.02,364.82"/>
        <lane id=":4684420219_1_2" index="2" disallow="tram rail_urban rail rail_electric rail_fast ship" speed="13.89" length="8.18" shape="254.57,369.48 259.45,362.92"/>
    </edge>
    <edge id=":5680876833_0" function="internal">
        <lane id=":5680876833_0_0" index="0" disallow="tram rail_urban rail rail_electric rail_fast ship" speed="13.89" length="8.11" shape="463.47,232.13 465.82,232.12 467.42,232.51 469.03,232.95 471.39,233.05"/>
        <lane id=":5680876833_0_1" index="1" disallow="tram rail_urban rail rail_electric rail_fast ship" speed="13.89" length="8.11" shape="463.11,228.95 465.51,228.93 467.15,229.32 468.79,229.76 471.20,229.86"/>
    </edge>
    <edge id=":6014249684_0" function="internal">
        <lane id=":6014249684_0_0" index="0" disallow="tram rail_urban rail rail_electric rail_fast ship" speed="13.89" length="8.17" shape="392.23,224.51 389.87,224.34 388.28,223.84 386.70,223.30 384.33,223.07"/>
        <lane id=":6014249684_0_1" index="1" disallow="tram rail_urban rail rail_electric rail_fast ship" speed="13.89" length="8.17" shape="392.35,227.71 389.96,227.54 388.35,227.03 386.74,226.50 384.35,226.27"/>
        <lane id=":6014249684_0_2" index="2" disallow="tram rail_urban rail rail_electric rail_fast ship" speed="13.89" length="8.17" shape="392.35,227.71 389.95,228.04 388.35,228.63 386.76,229.20 384.36,229.47"/>
    </edge>
    <edge id=":626495245_0" function="internal">
        <lane id=":626495245_0_0" index="0" disallow="tram rail_urban rail rail_electric rail_fast ship" speed="15.28" length="17.99" shape="282.63,223.15 278.91,226.66 276.19,228.89 273.21,230.76 268.72,233.22"/>
        <lane id=":626495245_0_1" index="1" disallow="tram rail_urban rail rail_electric rail_fast ship" speed="15.28" length="17.99" shape="284.72,225.57 280.86,229.23 278.02,231.53 274.91,233.48 270.24,236.03"/>
        <lane id=":626495245_0_2" index="2" disallow="tram rail_urban rail rail_electric rail_fast ship" speed="15.28" length="17.99" shape="284.72,225.57 281.03,229.75 278.80,232.97 276.29,235.81 271.76,238.84"/>
    </edge>
    <edge id=":626495245_3" function="internal">
        <lane id=":626495245_3_0" index="0" disallow="tram rail_urban rail rail_electric rail_fast ship" speed="16.67" length="17.67" shape="287.35,230.30 282.06,231.34 278.46,232.22 275.02,233.57 270.24,236.03"/>
        <lane id=":626495245_3_1" index="1" disallow="tram rail_urban rail rail_electric rail_fast ship" speed="16.67" length="17.67" shape="288.43,233.35 283.28,234.35 279.76,235.18 276.41,236.47 271.76,238.84"/>
        <lane id=":626495245_3_2" index="2" disallow="tram rail_urban rail rail_electric rail_fast ship" speed="16.67" length="17.67" shape="289.51,236.40 284.50,237.36 281.07,238.14 277.81,239.36 273.29,241.66"/>
    </edge>
    <edge id=":626495246_0" function="internal">
        <lane id=":626495246_0_0" index="0" disallow="tram rail_urban rail rail_electric rail_fast ship" speed="15.28" length="9.45" shape="300.76,189.91 300.69,192.66 300.20,194.51 299.38,196.30 298.32,198.91"/>
        <lane id=":626495246_0_1" index="1" disallow="tram rail_urban rail rail_electric rail_fast ship" speed="15.28" length="10.53" shape="303.96,189.76 303.90,192.84 303.41,194.91 302.55,196.93 301.39,199.84"/>
    </edge>
    <edge id=":626495246_2" function="internal">
        <lane id=":626495246_2_0" index="0" disallow="tram rail_urban rail rail_electric rail_fast ship" speed="16.67" length="10.86" shape="307.16,189.62 306.88,192.80 306.07,194.94 305.29,197.07 305.14,200.25"/>