<?xml version="1.0" encoding="UTF-8"?>

<!-- generated on 2023-07-19 15:54:23 by Eclipse SUMO netconvert Version 1.17.0
<configuration xmlns:xsi="http://www.w3.org/2001/XMLSchema-instance" xsi:noNamespaceSchemaLocation="http://sumo.dlr.de/xsd/netconvertConfiguration.xsd">

    <input>
        <sumo-net-file value="osm.net.xml.gz"/>
    </input>

    <output>
        <output-file value="osm.net.xml"/>
        <output.street-names value="true"/>
    </output>

    <processing>
        <geometry.min-radius.fix.railways value="false"/>
        <geometry.max-grade.fix value="false"/>
        <offset.disable-normalization value="true"/>
        <lefthand value="1"/>
    </processing>

    <junctions>
        <no-turnarounds value="true"/>
        <junctions.corner-detail value="5"/>
        <junctions.limit-turn-speed value="5.50"/>
        <rectangular-lane-cut value="0"/>
    </junctions>

    <pedestrian>
        <walkingareas value="0"/>
    </pedestrian>

</configuration>
-->

<net version="1.16" junctionCornerDetail="5" lefthand="true" limitTurnSpeed="5.50" xmlns:xsi="http://www.w3.org/2001/XMLSchema-instance" xsi:noNamespaceSchemaLocation="http://sumo.dlr.de/xsd/net_file.xsd">

    <location netOffset="-363506.56,-147698.89" convBoundary="0.00,0.00,1493.18,960.07" origBoundary="103.773129,1.335970,103.786546,1.344652" projParameter="+proj=utm +zone=48 +ellps=WGS84 +datum=WGS84 +units=m +no_defs"/>

    <type id="highway.bridleway" priority="1" numLanes="1" speed="2.78" allow="pedestrian" oneway="1" width="2.00"/>
    <type id="highway.bus_guideway" priority="1" numLanes="1" speed="27.78" allow="bus" oneway="1"/>
    <type id="highway.cycleway" priority="1" numLanes="1" speed="5.56" allow="bicycle" oneway="0" width="1.00"/>
    <type id="highway.footway" priority="1" numLanes="1" speed="2.78" allow="pedestrian" oneway="1" width="2.00"/>
    <type id="highway.ford" priority="1" numLanes="1" speed="2.78" allow="army" oneway="0"/>
    <type id="highway.living_street" priority="2" numLanes="1" speed="2.78" disallow="tram rail_urban rail rail_electric rail_fast ship" oneway="0"/>
    <type id="highway.motorway" priority="14" numLanes="2" speed="39.44" allow="private emergency authority army vip passenger hov taxi bus coach delivery truck trailer motorcycle evehicle custom1 custom2" oneway="1"/>
    <type id="highway.motorway_link" priority="9" numLanes="1" speed="22.22" allow="private emergency authority army vip passenger hov taxi bus coach delivery truck trailer motorcycle evehicle custom1 custom2" oneway="1"/>
    <type id="highway.path" priority="1" numLanes="1" speed="5.56" allow="pedestrian bicycle" oneway="0" width="2.00"/>
    <type id="highway.pedestrian" priority="1" numLanes="1" speed="2.78" allow="pedestrian" oneway="1" width="2.00"/>
    <type id="highway.primary" priority="12" numLanes="2" speed="27.78" disallow="tram rail_urban rail rail_electric rail_fast ship" oneway="0"/>
    <type id="highway.primary_link" priority="7" numLanes="1" speed="22.22" disallow="tram rail_urban rail rail_electric rail_fast ship" oneway="0"/>
    <type id="highway.raceway" priority="15" numLanes="2" speed="83.33" allow="vip" oneway="0"/>
    <type id="highway.residential" priority="3" numLanes="1" speed="13.89" disallow="tram rail_urban rail rail_electric rail_fast ship" oneway="0"/>
    <type id="highway.secondary" priority="11" numLanes="1" speed="27.78" disallow="tram rail_urban rail rail_electric rail_fast ship" oneway="0"/>
    <type id="highway.secondary_link" priority="6" numLanes="1" speed="22.22" disallow="tram rail_urban rail rail_electric rail_fast ship" oneway="0"/>
    <type id="highway.service" priority="1" numLanes="1" speed="5.56" allow="pedestrian delivery bicycle" oneway="0"/>
    <type id="highway.stairs" priority="1" numLanes="1" speed="1.39" allow="pedestrian" oneway="1" width="2.00"/>
    <type id="highway.step" priority="1" numLanes="1" speed="1.39" allow="pedestrian" oneway="1" width="2.00"/>
    <type id="highway.steps" priority="1" numLanes="1" speed="1.39" allow="pedestrian" oneway="1" width="2.00"/>
    <type id="highway.tertiary" priority="10" numLanes="1" speed="22.22" disallow="tram rail_urban rail rail_electric rail_fast ship" oneway="0"/>
    <type id="highway.tertiary_link" priority="5" numLanes="1" speed="22.22" disallow="tram rail_urban rail rail_electric rail_fast ship" oneway="0"/>
    <type id="highway.track" priority="1" numLanes="1" speed="5.56" allow="pedestrian motorcycle moped bicycle" oneway="0"/>
    <type id="highway.trunk" priority="13" numLanes="2" speed="27.78" disallow="pedestrian bicycle tram rail_urban rail rail_electric rail_fast ship" oneway="0"/>
    <type id="highway.trunk_link" priority="8" numLanes="1" speed="22.22" disallow="pedestrian bicycle tram rail_urban rail rail_electric rail_fast ship" oneway="0"/>
    <type id="highway.unclassified" priority="4" numLanes="1" speed="13.89" disallow="tram rail_urban rail rail_electric rail_fast ship" oneway="0"/>
    <type id="highway.unsurfaced" priority="1" numLanes="1" speed="8.33" disallow="tram rail_urban rail rail_electric rail_fast ship" oneway="0"/>
    <type id="railway.highspeed" priority="21" numLanes="1" speed="69.44" allow="rail_fast" oneway="1"/>
    <type id="railway.light_rail" priority="19" numLanes="1" speed="27.78" allow="rail_urban" oneway="1"/>
    <type id="railway.preserved" priority="16" numLanes="1" speed="27.78" allow="rail" oneway="1"/>
    <type id="railway.rail" priority="20" numLanes="1" speed="44.44" allow="rail" oneway="1"/>
    <type id="railway.subway" priority="18" numLanes="1" speed="27.78" allow="rail_urban" oneway="1"/>
    <type id="railway.tram" priority="17" numLanes="1" speed="13.89" allow="tram" oneway="1"/>

    <edge id=":1491225843_0" function="internal">
        <lane id=":1491225843_0_0" index="0" allow="private emergency authority army vip passenger hov taxi bus coach delivery truck trailer motorcycle evehicle custom1 custom2" speed="23.61" length="0.44" shape="793.54,636.36 793.44,636.32"/>
        <lane id=":1491225843_0_1" index="1" allow="private emergency authority army vip passenger hov taxi bus coach delivery truck trailer motorcycle evehicle custom1 custom2" speed="23.61" length="0.44" shape="792.58,639.41 792.27,639.30"/>
        <lane id=":1491225843_0_2" index="2" allow="private emergency authority army vip passenger hov taxi bus coach delivery truck trailer motorcycle evehicle custom1 custom2" speed="23.61" length="0.44" shape="791.62,642.46 791.10,642.28"/>
        <lane id=":1491225843_0_3" index="3" allow="private emergency authority army vip passenger hov taxi bus coach delivery truck trailer motorcycle evehicle custom1 custom2" speed="23.61" length="0.44" shape="790.66,645.51 789.94,645.26"/>
    </edge>
    <edge id=":1491225850_0" function="internal">
        <lane id=":1491225850_0_0" index="0" allow="private emergency authority army vip passenger hov taxi bus coach delivery truck trailer motorcycle evehicle custom1 custom2" speed="23.61" length="0.30" shape="870.24,706.24 870.55,706.33"/>
        <lane id=":1491225850_0_1" index="1" allow="private emergency authority army vip passenger hov taxi bus coach delivery truck trailer motorcycle evehicle custom1 custom2" speed="23.61" length="0.30" shape="871.16,703.17 871.45,703.26"/>
        <lane id=":1491225850_0_2" index="2" allow="private emergency authority army vip passenger hov taxi bus coach delivery truck trailer motorcycle evehicle custom1 custom2" speed="23.61" length="0.30" shape="872.08,700.10 872.35,700.19"/>
        <lane id=":1491225850_0_3" index="3" allow="private emergency authority army vip passenger hov taxi bus coach delivery truck trailer motorcycle evehicle custom1 custom2" speed="23.61" length="0.30" shape="872.99,697.04 873.25,697.12"/>
    </edge>
    <edge id=":1491225854_0" function="internal">
        <lane id=":1491225854_0_0" index="0" allow="private emergency authority army vip passenger hov taxi bus coach delivery truck trailer motorcycle evehicle custom1 custom2" speed="13.89" length="7.74" shape="829.06,690.29 826.76,690.33 825.16,690.01 823.58,689.76 821.31,690.01"/>
        <lane id=":1491225854_0_1" index="1" allow="private emergency authority army vip passenger hov taxi bus coach delivery truck trailer motorcycle evehicle custom1 custom2" speed="13.89" length="7.74" shape="829.06,690.29 826.89,690.81 825.51,691.57 824.14,692.40 822.01,693.13"/>
    </edge>
    <edge id=":1491225856_0" function="internal">
        <lane id=":1491225856_0_0" index="0" allow="private emergency authority army vip passenger hov taxi bus coach delivery truck trailer motorcycle evehicle custom1 custom2" speed="23.61" length="0.30" shape="925.68,722.46 925.93,722.54"/>
        <lane id=":1491225856_0_1" index="1" allow="private emergency authority army vip passenger hov taxi bus coach delivery truck trailer motorcycle evehicle custom1 custom2" speed="23.61" length="0.30" shape="926.58,719.39 926.85,719.47"/>
        <lane id=":1491225856_0_2" index="2" allow="private emergency authority army vip passenger hov taxi bus coach delivery truck trailer motorcycle evehicle custom1 custom2" speed="23.61" length="0.30" shape="927.48,716.32 927.77,716.41"/>
        <lane id=":1491225856_0_3" index="3" allow="private emergency authority army vip passenger hov taxi bus coach delivery truck trailer motorcycle evehicle custom1 custom2" speed="23.61" length="0.30" shape="928.38,713.25 928.70,713.35"/>
    </edge>
    <edge id=":1491225858_0" function="internal">
        <lane id=":1491225858_0_0" index="0" allow="private emergency authority army vip passenger hov taxi bus coach delivery truck trailer motorcycle evehicle custom1 custom2" speed="13.89" length="0.29" shape="760.82,724.53 761.13,724.49"/>
        <lane id=":1491225858_0_1" index="1" allow="private emergency authority army vip passenger hov taxi bus coach delivery truck trailer motorcycle evehicle custom1 custom2" speed="13.89" length="0.29" shape="760.37,721.37 760.63,721.33"/>
    </edge>
    <edge id=":1491235000_0" function="internal">
        <lane id=":1491235000_0_0" index="0" disallow="pedestrian bicycle tram rail_urban rail rail_electric rail_fast ship" speed="10.09" length="10.36" shape="349.22,492.84 352.12,491.74 354.76,491.21 357.14,491.25 359.24,491.85"/>
    </edge>
    <edge id=":1491235000_1" function="internal">
        <lane id=":1491235000_1_0" index="0" disallow="tram rail_urban rail rail_electric rail_fast ship" speed="13.89" length="11.25" shape="348.93,488.59 352.03,489.44 354.18,489.97 356.28,490.63 359.24,491.85"/>
        <lane id=":1491235000_1_1" index="1" disallow="tram rail_urban rail rail_electric rail_fast ship" speed="13.89" length="11.25" shape="349.85,485.52 353.07,486.41 355.30,486.97 357.47,487.65 360.55,488.93"/>
        <lane id=":1491235000_1_2" index="2" disallow="tram rail_urban rail rail_electric rail_fast ship" speed="13.89" length="11.25" shape="350.77,482.46 354.11,483.38 356.41,483.97 358.67,484.68 361.86,486.01"/>
    </edge>
    <edge id=":1496839742_0" function="internal">
        <lane id=":1496839742_0_0" index="0" disallow="tram rail_urban rail rail_electric rail_fast ship" speed="13.89" length="8.18" shape="136.66,463.15 134.29,463.10 132.67,462.67 131.06,462.22 128.68,462.10"/>
        <lane id=":1496839742_0_1" index="1" disallow="tram rail_urban rail rail_electric rail_fast ship" speed="13.89" length="8.18" shape="136.93,466.34 134.53,466.29 132.90,465.86 131.26,465.42 128.86,465.30"/>
        <lane id=":1496839742_0_2" index="2" disallow="tram rail_urban rail rail_electric rail_fast ship" speed="13.89" length="8.18" shape="136.93,466.34 134.55,466.79 132.98,467.46 131.42,468.11 129.03,468.50"/>
    </edge>
    <edge id=":236573190_0" function="internal">
        <lane id=":236573190_0_0" index="0" disallow="pedestrian bicycle tram rail_urban rail rail_electric rail_fast ship" speed="16.66" length="22.54" shape="700.63,183.58 705.66,180.19 709.98,178.65 714.81,177.59 721.38,175.67"/>
        <lane id=":236573190_0_1" index="1" disallow="pedestrian bicycle tram rail_urban rail rail_electric rail_fast ship" speed="16.66" length="22.54" shape="699.33,180.51 704.38,177.13 708.75,175.61 713.66,174.58 720.30,172.66"/>
    </edge>
    <edge id=":236573190_2" function="internal">
        <lane id=":236573190_2_0" index="0" disallow="pedestrian bicycle tram rail_urban rail rail_electric rail_fast ship" speed="19.44" length="12.71" shape="706.72,172.76 710.47,171.97 713.05,171.47 715.59,170.84 719.22,169.65"/>
        <lane id=":236573190_2_1" index="1" disallow="pedestrian bicycle tram rail_urban rail rail_electric rail_fast ship" speed="19.44" length="12.71" shape="706.00,169.64 709.64,168.87 712.14,168.40 714.61,167.80 718.14,166.63"/>
    </edge>
    <edge id=":236573202_0" function="internal">
        <lane id=":236573202_0_0" index="0" disallow="pedestrian bicycle tram rail_urban rail rail_electric rail_fast ship" speed="16.67" length="7.38" shape="704.23,299.77 704.05,297.44 704.25,295.80 704.36,294.19 703.91,291.92"/>
        <lane id=":236573202_0_1" index="1" disallow="pedestrian bicycle tram rail_urban rail rail_electric rail_fast ship" speed="16.67" length="7.38" shape="701.08,300.35 700.92,298.14 701.14,296.58 701.28,295.04 700.86,292.90"/>
        <lane id=":236573202_0_2" index="2" disallow="pedestrian bicycle tram rail_urban rail rail_electric rail_fast ship" speed="16.67" length="7.38" shape="697.93,300.93 697.80,298.83 698.04,297.36 698.19,295.90 697.81,293.87"/>
        <lane id=":236573202_0_3" index="3" disallow="pedestrian bicycle tram rail_urban rail rail_electric rail_fast ship" speed="16.67" length="7.38" shape="697.93,300.93 697.32,299.01 696.51,297.84 695.61,296.69 694.76,294.84"/>
    </edge>
    <edge id=":236573222_0" function="internal">
        <lane id=":236573222_0_0" index="0" disallow="pedestrian bicycle tram rail_urban rail rail_electric rail_fast ship" speed="16.67" length="7.58" shape="711.13,378.62 711.61,376.34 712.27,374.83 712.85,373.31 713.09,371.02"/>
        <lane id=":236573222_0_1" index="1" disallow="pedestrian bicycle tram rail_urban rail rail_electric rail_fast ship" speed="16.67" length="7.58" shape="707.95,378.30 708.41,376.12 709.07,374.68 709.65,373.23 709.89,371.04"/>
        <lane id=":236573222_0_2" index="2" disallow="pedestrian bicycle tram rail_urban rail rail_electric rail_fast ship" speed="16.67" length="7.58" shape="704.77,377.99 705.22,375.90 705.87,374.53 706.45,373.16 706.69,371.06"/>
    </edge>
    <edge id=":236594191_0" function="internal">
        <lane id=":236594191_0_0" index="0" disallow="pedestrian bicycle tram rail_urban rail rail_electric rail_fast ship" speed="16.67" length="11.86" shape="472.86,254.16 465.22,263.40"/>
        <lane id=":236594191_0_1" index="1" disallow="pedestrian bicycle tram rail_urban rail rail_electric rail_fast ship" speed="16.67" length="11.86" shape="475.31,256.22 467.73,265.39"/>
        <lane id=":236594191_0_2" index="2" disallow="pedestrian bicycle tram rail_urban rail rail_electric rail_fast ship" speed="16.67" length="11.86" shape="477.76,258.27 470.23,267.38"/>
        <lane id=":236594191_0_3" index="3" disallow="pedestrian bicycle tram rail_urban rail rail_electric rail_fast ship" speed="16.67" length="11.86" shape="480.21,260.33 472.74,269.37"/>
    </edge>
    <edge id=":236594191_4" function="internal">
        <lane id=":236594191_4_0" index="0" allow="private emergency authority army vip passenger hov taxi bus coach delivery truck trailer motorcycle evehicle custom1 custom2" speed="7.91" length="8.98" shape="464.63,254.86 465.69,257.58 466.15,259.91 465.99,261.85 465.22,263.40"/>
        <lane id=":236594191_4_1" index="1" allow="private emergency authority army vip passenger hov taxi bus coach delivery truck trailer motorcycle evehicle custom1 custom2" speed="9.25" length="12.54" shape="467.51,253.48 468.88,257.09 469.37,260.28 468.98,263.04 467.73,265.39"/>
        <lane id=":236594191_4_2" index="2" allow="private emergency authority army vip passenger hov taxi bus coach delivery truck trailer motorcycle evehicle custom1 custom2" speed="9.95" length="14.62" shape="467.51,253.48 469.61,258.42 470.76,262.39 470.97,265.37 470.23,267.38"/>
    </edge>
    <edge id=":236595743_0" function="internal">
        <lane id=":236595743_0_0" index="0" disallow="pedestrian bicycle tram rail_urban rail rail_electric rail_fast ship" speed="16.66" length="26.01" shape="701.33,140.03 693.60,142.08 687.69,142.48 682.19,141.88 675.70,140.95"/>
        <lane id=":236595743_0_1" index="1" disallow="pedestrian bicycle tram rail_urban rail rail_electric rail_fast ship" speed="16.66" length="26.22" shape="701.33,140.03 693.56,142.61 687.67,144.11 682.21,144.62 675.75,144.17"/>
    </edge>
    <edge id=":236595743_2" function="internal">
        <lane id=":236595743_2_0" index="0" disallow="pedestrian bicycle tram rail_urban rail rail_electric rail_fast ship" speed="19.44" length="26.32" shape="701.33,140.03 676.54,149.13"/>
        <lane id=":236595743_2_1" index="1" disallow="pedestrian bicycle tram rail_urban rail rail_electric rail_fast ship" speed="19.44" length="26.32" shape="702.36,143.06 677.63,152.14"/>
        <lane id=":236595743_2_2" index="2" disallow="pedestrian bicycle tram rail_urban rail rail_electric rail_fast ship" speed="19.44" length="26.32" shape="703.39,146.08 678.72,155.15"/>
        <lane id=":236595743_2_3" index="3" disallow="pedestrian bicycle tram rail_urban rail rail_electric rail_fast ship" speed="19.44" length="26.32" shape="704.43,149.11 679.81,158.16"/>
    </edge>
    <edge id=":243988114_0" function="internal">
        <lane id=":243988114_0_0" index="0" disallow="pedestrian tram rail_urban rail rail_electric rail_fast ship" speed="16.67" length="0.30" shape="650.76,183.66 650.66,183.37"/>
        <lane id=":243988114_0_1" index="1" disallow="pedestrian tram rail_urban rail rail_electric rail_fast ship" speed="16.67" length="0.30" shape="647.76,184.77 647.66,184.49"/>
    </edge>
    <edge id=":243988214_0" function="internal">
        <lane id=":243988214_0_0" index="0" disallow="pedestrian tram rail_urban rail rail_electric rail_fast ship" speed="16.67" length="0.30" shape="639.54,187.05 639.64,187.33"/>
        <lane id=":243988214_0_1" index="1" disallow="pedestrian tram rail_urban rail rail_electric rail_fast ship" speed="16.67" length="0.30" shape="642.54,185.94 642.64,186.23"/>
    </edge>
    <edge id=":247189821_0" function="internal">
        <lane id=":247189821_0_0" index="0" disallow="tram rail_urban rail rail_electric rail_fast ship" speed="13.89" length="8.00" shape="128.79,475.97 131.05,476.07 132.58,476.54 134.10,477.07 136.37,477.33"/>
        <lane id=":247189821_0_1" index="1" disallow="tram rail_urban rail rail_electric rail_fast ship" speed="13.89" length="8.00" shape="128.57,472.78 130.90,472.87 132.48,473.34 134.05,473.87 136.39,474.13"/>
        <lane id=":247189821_0_2" index="2" disallow="tram rail_urban rail rail_electric rail_fast ship" speed="13.89" length="8.00" shape="128.35,469.59 130.75,469.67 132.38,470.15 134.00,470.67 136.41,470.93"/>
    </edge>
    <edge id=":247189840_0" function="internal">
        <lane id=":247189840_0_0" index="0" disallow="pedestrian bicycle tram rail_urban rail rail_electric rail_fast ship" speed="16.67" length="9.88" shape="345.02,837.28 343.52,839.27 342.40,840.56 341.14,841.72 339.21,843.28"/>
        <lane id=":247189840_0_1" index="1" disallow="pedestrian bicycle tram rail_urban rail rail_electric rail_fast ship" speed="16.67" length="9.88" shape="345.02,837.28 343.76,839.78 343.43,841.85 342.94,843.76 341.20,845.78"/>
        <lane id=":247189840_0_2" index="2" disallow="pedestrian bicycle tram rail_urban rail rail_electric rail_fast ship" speed="16.67" length="9.88" shape="345.02,837.28 344.09,840.21 344.62,842.99 344.90,845.67 343.19,848.29"/>
    </edge>
    <edge id=":247211104_0" function="internal">
        <lane id=":247211104_0_0" index="0" disallow="pedestrian bicycle tram rail_urban rail rail_electric rail_fast ship" speed="15.28" length="8.71" shape="545.25,583.02 544.09,585.29 542.96,586.64 541.62,587.86 539.80,589.71"/>
    </edge>
    <edge id=":247211104_1" function="internal">
        <lane id=":247211104_1_0" index="0" disallow="pedestrian bicycle tram rail_urban rail rail_electric rail_fast ship" speed="16.67" length="9.28" shape="548.19,584.28 546.87,586.65 545.56,588.03 544.20,589.40 542.73,591.70"/>
        <lane id=":247211104_1_1" index="1" disallow="pedestrian bicycle tram rail_urban rail rail_electric rail_fast ship" speed="16.67" length="9.28" shape="551.13,585.54 549.81,587.91 548.50,589.30 547.14,590.67 545.67,592.98"/>
    </edge>
    <edge id=":247211108_0" function="internal">
        <lane id=":247211108_0_0" index="0" disallow="pedestrian bicycle tram rail_urban rail rail_electric rail_fast ship" speed="16.67" length="7.39" shape="280.07,890.22 278.31,891.49 276.98,892.18 275.56,892.72 273.52,893.53"/>
    </edge>
    <edge id=":247211108_1" function="internal">
        <lane id=":247211108_1_0" index="0" disallow="pedestrian bicycle tram rail_urban rail rail_electric rail_fast ship" speed="16.67" length="7.56" shape="282.06,892.72 280.17,893.99 278.71,894.63 277.27,895.28 275.42,896.60"/>
        <lane id=":247211108_1_1" index="1" disallow="pedestrian bicycle tram rail_urban rail rail_electric rail_fast ship" speed="16.67" length="7.56" shape="284.05,895.23 282.24,896.43 280.84,897.03 279.45,897.64 277.67,898.88"/>
    </edge>
    <edge id=":247211211_0" function="internal">
        <lane id=":247211211_0_0" index="0" disallow="pedestrian bicycle tram rail_urban rail rail_electric rail_fast ship" speed="15.28" length="5.30" shape="692.35,246.76 687.25,245.31"/>
        <lane id=":247211211_0_1" index="1" disallow="pedestrian bicycle tram rail_urban rail rail_electric rail_fast ship" speed="15.28" length="5.49" shape="689.25,247.57 684.08,245.74"/>
    </edge>
    <edge id=":247211211_2" function="internal">
        <lane id=":247211211_2_0" index="0" disallow="pedestrian bicycle tram rail_urban rail rail_electric rail_fast ship" speed="16.67" length="4.18" shape="686.16,248.39 688.44,245.15"/>
        <lane id=":247211211_2_1" index="1" disallow="pedestrian bicycle tram rail_urban rail rail_electric rail_fast ship" speed="16.67" length="4.18" shape="683.06,249.20 685.16,245.59"/>
        <lane id=":247211211_2_2" index="2" disallow="pedestrian bicycle tram rail_urban rail rail_electric rail_fast ship" speed="16.67" length="4.18" shape="679.97,250.01 681.89,246.03"/>
    </edge>
    <edge id=":247211641_0" function="internal">
        <lane id=":247211641_0_0" index="0" disallow="pedestrian bicycle tram rail_urban rail rail_electric rail_fast ship" speed="13.15" length="6.60" shape="605.54,143.80 605.98,145.68 606.01,147.01 605.75,148.36 605.33,150.28"/>
        <lane id=":247211641_0_1" index="1" disallow="pedestrian bicycle tram rail_urban rail rail_electric rail_fast ship" speed="14.31" length="7.85" shape="608.61,142.90 609.16,145.14 609.25,146.73 609.00,148.33 608.52,150.62"/>
    </edge>
    <edge id=":247211641_2" function="internal">
        <lane id=":247211641_2_0" index="0" disallow="tram rail_urban rail rail_electric rail_fast ship" speed="16.67" length="7.94" shape="611.68,142.00 612.07,144.37 611.91,146.07 611.83,147.75 612.43,150.04"/>
        <lane id=":247211641_2_1" index="1" disallow="tram rail_urban rail rail_electric rail_fast ship" speed="16.67" length="7.94" shape="614.75,141.10 615.10,143.34 614.92,144.96 614.80,146.55 615.34,148.72"/>
    </edge>
    <edge id=":247211642_0" function="internal">
        <lane id=":247211642_0_0" index="0" disallow="pedestrian bicycle tram rail_urban rail rail_electric rail_fast ship" speed="11.50" length="14.87" shape="600.02,169.42 598.34,173.25 596.51,176.23 594.53,178.38 592.41,179.69"/>
        <lane id=":247211642_0_1" index="1" disallow="pedestrian bicycle tram rail_urban rail rail_electric rail_fast ship" speed="12.26" length="14.87" shape="602.73,171.31 600.88,175.41 598.74,178.67 596.31,181.08 593.60,182.66"/>
        <lane id=":247211642_0_2" index="2" disallow="pedestrian bicycle tram rail_urban rail rail_electric rail_fast ship" speed="12.89" length="14.87" shape="602.73,171.31 600.37,177.12 598.27,181.45 596.41,184.28 594.80,185.63"/>
    </edge>
    <edge id=":247211642_3" function="internal">
        <lane id=":247211642_3_0" index="0" disallow="pedestrian bicycle tram rail_urban rail rail_electric rail_fast ship" speed="16.67" length="14.04" shape="605.54,174.61 592.41,179.69"/>
        <lane id=":247211642_3_1" index="1" disallow="pedestrian bicycle tram rail_urban rail rail_electric rail_fast ship" speed="16.67" length="14.04" shape="606.71,177.59 593.60,182.66"/>
        <lane id=":247211642_3_2" index="2" disallow="pedestrian bicycle tram rail_urban rail rail_electric rail_fast ship" speed="16.67" length="14.04" shape="607.88,180.56 594.80,185.63"/>
        <lane id=":247211642_3_3" index="3" disallow="pedestrian bicycle tram rail_urban rail rail_electric rail_fast ship" speed="16.67" length="14.04" shape="609.06,183.54 596.00,188.59"/>
    </edge>
    <edge id=":247211644_0" function="internal">
        <lane id=":247211644_0_0" index="0" disallow="pedestrian bicycle tram rail_urban rail rail_electric rail_fast ship" speed="15.28" length="20.26" shape="647.35,129.28 642.94,125.45 639.56,123.00 636.88,120.13 634.58,115.03"/>
        <lane id=":247211644_0_1" index="1" disallow="pedestrian bicycle tram rail_urban rail rail_electric rail_fast ship" speed="15.28" length="20.26" shape="645.06,131.52 640.43,127.42 636.83,124.65 633.97,121.44 631.53,116.02"/>
    </edge>
    <edge id=":247211644_2" function="internal">
        <lane id=":247211644_2_0" index="0" disallow="tram rail_urban rail rail_electric rail_fast ship" speed="16.67" length="20.06" shape="641.95,133.56 634.58,115.03"/>
        <lane id=":247211644_2_1" index="1" disallow="tram rail_urban rail rail_electric rail_fast ship" speed="16.67" length="20.06" shape="638.98,134.76 631.53,116.02"/>
    </edge>
    <edge id=":247211704_0" function="internal">
        <lane id=":247211704_0_0" index="0" allow="private emergency authority army vip passenger hov taxi bus coach delivery truck trailer motorcycle evehicle custom1 custom2" speed="12.90" length="12.83" shape="531.76,694.79 535.28,694.00 537.81,693.44 540.23,693.59 543.40,694.92"/>
        <lane id=":247211704_0_1" index="1" allow="private emergency authority army vip passenger hov taxi bus coach delivery truck trailer motorcycle evehicle custom1 custom2" speed="13.69" length="12.83" shape="531.80,691.53 535.77,690.71 538.63,690.22 541.35,690.54 544.93,692.11"/>
    </edge>
    <edge id=":247211704_2" function="internal">
        <lane id=":247211704_2_0" index="0" allow="private emergency authority army vip passenger hov taxi bus coach delivery truck trailer motorcycle evehicle custom1 custom2" speed="13.89" length="12.51" shape="533.08,687.47 536.03,689.84 538.04,691.51 540.14,693.02 543.40,694.92"/>
        <lane id=":247211704_2_1" index="1" allow="private emergency authority army vip passenger hov taxi bus coach delivery truck trailer motorcycle evehicle custom1 custom2" speed="13.89" length="12.51" shape="535.03,684.93 537.87,687.21 539.78,688.82 541.80,690.28 544.93,692.11"/>
    </edge>
    <edge id=":247211713_0" function="internal">
        <lane id=":247211713_0_0" index="0" allow="private emergency authority army vip passenger hov taxi bus coach delivery truck trailer motorcycle evehicle custom1 custom2" speed="13.89" length="0.29" shape="712.47,731.49 712.78,731.44"/>
        <lane id=":247211713_0_1" index="1" allow="private emergency authority army vip passenger hov taxi bus coach delivery truck trailer motorcycle evehicle custom1 custom2" speed="13.89" length="0.29" shape="712.07,728.31 712.32,728.28"/>
    </edge>
    <edge id=":247211737_0" function="internal">
        <lane id=":247211737_0_0" index="0" allow="private emergency authority army vip passenger hov taxi bus coach delivery truck trailer motorcycle evehicle custom1 custom2" speed="13.89" length="15.80" shape="663.48,702.84 658.85,701.05 655.73,698.71 653.16,696.38 650.16,694.63"/>
    </edge>
    <edge id=":247211737_1" function="internal">
        <lane id=":247211737_1_0" index="0" allow="private emergency authority army vip passenger hov taxi bus coach delivery truck trailer motorcycle evehicle custom1 custom2" speed="13.89" length="15.97" shape="663.48,702.84 648.02,698.94"/>
        <lane id=":247211737_1_1" index="1" allow="private emergency authority army vip passenger hov taxi bus coach delivery truck trailer motorcycle evehicle custom1 custom2" speed="13.89" length="15.97" shape="662.76,705.95 647.24,702.04"/>
    </edge>
    <edge id=":247211745_0" function="internal">
        <lane id=":247211745_0_0" index="0" allow="private emergency authority army vip passenger hov taxi bus coach delivery truck trailer motorcycle evehicle custom1 custom2" speed="15.28" length="24.69" shape="574.33,631.38 575.05,625.01 575.90,619.97 577.88,615.06 582.00,609.09"/>
        <lane id=":247211745_0_1" index="1" allow="private emergency authority army vip passenger hov taxi bus coach delivery truck trailer motorcycle evehicle custom1 custom2" speed="15.28" length="24.69" shape="571.22,630.47 571.98,624.00 572.95,618.70 575.13,613.44 579.50,607.09"/>
    </edge>
    <edge id=":247211745_2" function="internal">