<?xml version="1.0" encoding="UTF-8"?>

<!-- generated on 2023-07-17 11:31:57 by Eclipse SUMO netconvert Version 1.17.0
<configuration xmlns:xsi="http://www.w3.org/2001/XMLSchema-instance" xsi:noNamespaceSchemaLocation="http://sumo.dlr.de/xsd/netconvertConfiguration.xsd">

    <input>
        <sumo-net-file value="osm.net.xml.gz"/>
    </input>

    <output>
        <output-file value="osm.net.xml"/>
        <output.street-names value="true"/>
    </output>

    <processing>
        <geometry.min-radius.fix.railways value="false"/>
        <geometry.max-grade.fix value="false"/>
        <offset.disable-normalization value="true"/>
        <lefthand value="1"/>
    </processing>

    <junctions>
        <no-turnarounds value="true"/>
        <junctions.corner-detail value="5"/>
        <junctions.limit-turn-speed value="5.50"/>
        <rectangular-lane-cut value="0"/>
    </junctions>

    <pedestrian>
        <walkingareas value="0"/>
    </pedestrian>

</configuration>
-->

<net version="1.16" junctionCornerDetail="5" lefthand="true" limitTurnSpeed="5.50" xmlns:xsi="http://www.w3.org/2001/XMLSchema-instance" xsi:noNamespaceSchemaLocation="http://sumo.dlr.de/xsd/net_file.xsd">

    <location netOffset="-374449.20,-143445.42" convBoundary="0.00,0.00,916.34,1796.53" origBoundary="103.871489,1.297543,103.879724,1.313792" projParameter="+proj=utm +zone=48 +ellps=WGS84 +datum=WGS84 +units=m +no_defs"/>

    <type id="highway.bridleway" priority="1" numLanes="1" speed="2.78" allow="pedestrian" oneway="1" width="2.00"/>
    <type id="highway.bus_guideway" priority="1" numLanes="1" speed="27.78" allow="bus" oneway="1"/>
    <type id="highway.cycleway" priority="1" numLanes="1" speed="5.56" allow="bicycle" oneway="0" width="1.00"/>
    <type id="highway.footway" priority="1" numLanes="1" speed="2.78" allow="pedestrian" oneway="1" width="2.00"/>
    <type id="highway.ford" priority="1" numLanes="1" speed="2.78" allow="army" oneway="0"/>
    <type id="highway.living_street" priority="2" numLanes="1" speed="2.78" disallow="tram rail_urban rail rail_electric rail_fast ship" oneway="0"/>
    <type id="highway.motorway" priority="14" numLanes="2" speed="39.44" allow="private emergency authority army vip passenger hov taxi bus coach delivery truck trailer motorcycle evehicle custom1 custom2" oneway="1"/>
    <type id="highway.motorway_link" priority="9" numLanes="1" speed="22.22" allow="private emergency authority army vip passenger hov taxi bus coach delivery truck trailer motorcycle evehicle custom1 custom2" oneway="1"/>
    <type id="highway.path" priority="1" numLanes="1" speed="5.56" allow="pedestrian bicycle" oneway="0" width="2.00"/>
    <type id="highway.pedestrian" priority="1" numLanes="1" speed="2.78" allow="pedestrian" oneway="1" width="2.00"/>
    <type id="highway.primary" priority="12" numLanes="2" speed="27.78" disallow="tram rail_urban rail rail_electric rail_fast ship" oneway="0"/>
    <type id="highway.primary_link" priority="7" numLanes="1" speed="22.22" disallow="tram rail_urban rail rail_electric rail_fast ship" oneway="0"/>
    <type id="highway.raceway" priority="15" numLanes="2" speed="83.33" allow="vip" oneway="0"/>
    <type id="highway.residential" priority="3" numLanes="1" speed="13.89" disallow="tram rail_urban rail rail_electric rail_fast ship" oneway="0"/>
    <type id="highway.secondary" priority="11" numLanes="1" speed="27.78" disallow="tram rail_urban rail rail_electric rail_fast ship" oneway="0"/>
    <type id="highway.secondary_link" priority="6" numLanes="1" speed="22.22" disallow="tram rail_urban rail rail_electric rail_fast ship" oneway="0"/>
    <type id="highway.service" priority="1" numLanes="1" speed="5.56" allow="pedestrian delivery bicycle" oneway="0"/>
    <type id="highway.stairs" priority="1" numLanes="1" speed="1.39" allow="pedestrian" oneway="1" width="2.00"/>
    <type id="highway.step" priority="1" numLanes="1" speed="1.39" allow="pedestrian" oneway="1" width="2.00"/>
    <type id="highway.steps" priority="1" numLanes="1" speed="1.39" allow="pedestrian" oneway="1" width="2.00"/>
    <type id="highway.tertiary" priority="10" numLanes="1" speed="22.22" disallow="tram rail_urban rail rail_electric rail_fast ship" oneway="0"/>
    <type id="highway.tertiary_link" priority="5" numLanes="1" speed="22.22" disallow="tram rail_urban rail rail_electric rail_fast ship" oneway="0"/>
    <type id="highway.track" priority="1" numLanes="1" speed="5.56" allow="pedestrian motorcycle moped bicycle" oneway="0"/>
    <type id="highway.trunk" priority="13" numLanes="2" speed="27.78" disallow="pedestrian bicycle tram rail_urban rail rail_electric rail_fast ship" oneway="0"/>
    <type id="highway.trunk_link" priority="8" numLanes="1" speed="22.22" disallow="pedestrian bicycle tram rail_urban rail rail_electric rail_fast ship" oneway="0"/>
    <type id="highway.unclassified" priority="4" numLanes="1" speed="13.89" disallow="tram rail_urban rail rail_electric rail_fast ship" oneway="0"/>
    <type id="highway.unsurfaced" priority="1" numLanes="1" speed="8.33" disallow="tram rail_urban rail rail_electric rail_fast ship" oneway="0"/>
    <type id="railway.highspeed" priority="21" numLanes="1" speed="69.44" allow="rail_fast" oneway="1"/>
    <type id="railway.light_rail" priority="19" numLanes="1" speed="27.78" allow="rail_urban" oneway="1"/>
    <type id="railway.preserved" priority="16" numLanes="1" speed="27.78" allow="rail" oneway="1"/>
    <type id="railway.rail" priority="20" numLanes="1" speed="44.44" allow="rail" oneway="1"/>
    <type id="railway.subway" priority="18" numLanes="1" speed="27.78" allow="rail_urban" oneway="1"/>
    <type id="railway.tram" priority="17" numLanes="1" speed="13.89" allow="tram" oneway="1"/>

    <edge id=":1272299429_0" function="internal">
        <lane id=":1272299429_0_0" index="0" disallow="tram rail_urban rail rail_electric rail_fast ship" speed="13.89" length="10.35" shape="640.60,1212.85 643.67,1212.90 645.76,1213.28 647.81,1213.88 650.73,1214.64"/>
    </edge>
    <edge id=":1272299429_1" function="internal">
        <lane id=":1272299429_1_0" index="0" disallow="tram rail_urban rail rail_electric rail_fast ship" speed="13.89" length="10.70" shape="640.49,1209.65 643.69,1209.76 645.89,1210.22 648.03,1210.80 651.03,1211.28"/>
    </edge>
    <edge id=":1272299435_0" function="internal">
        <lane id=":1272299435_0_0" index="0" disallow="tram rail_urban rail rail_electric rail_fast ship" speed="6.99" length="1.28" shape="595.35,1217.87 596.48,1217.28"/>
        <lane id=":1272299435_0_1" index="1" disallow="tram rail_urban rail rail_electric rail_fast ship" speed="13.72" length="5.28" shape="594.49,1214.79 596.00,1214.40 597.07,1214.25 598.15,1214.31 599.70,1214.53"/>
    </edge>
    <edge id=":1272299435_2" function="internal">
        <lane id=":1272299435_2_0" index="0" disallow="tram rail_urban rail rail_electric rail_fast ship" speed="16.67" length="9.02" shape="593.64,1211.70 596.34,1211.33 598.28,1211.59 600.21,1211.79 602.86,1211.24"/>
        <lane id=":1272299435_2_1" index="1" disallow="tram rail_urban rail rail_electric rail_fast ship" speed="16.67" length="9.02" shape="592.78,1208.62 595.42,1208.26 597.32,1208.54 599.20,1208.75 601.79,1208.23"/>
        <lane id=":1272299435_2_2" index="2" disallow="tram rail_urban rail rail_electric rail_fast ship" speed="16.67" length="9.02" shape="591.92,1205.54 594.50,1205.20 596.36,1205.48 598.20,1205.72 600.73,1205.21"/>
        <lane id=":1272299435_2_3" index="3" disallow="tram rail_urban rail rail_electric rail_fast ship" speed="16.67" length="9.02" shape="591.07,1202.45 593.59,1202.13 595.40,1202.43 597.19,1202.68 599.66,1202.19"/>
    </edge>
    <edge id=":1272299472_0" function="internal">
        <lane id=":1272299472_0_0" index="0" disallow="tram rail_urban rail rail_electric rail_fast ship" speed="10.09" length="7.93" shape="659.71,1217.16 662.01,1217.76 663.67,1218.19 665.03,1219.02 666.41,1220.79"/>
    </edge>
    <edge id=":1272299472_1" function="internal">
        <lane id=":1272299472_1_0" index="0" disallow="tram rail_urban rail rail_electric rail_fast ship" speed="16.67" length="7.29" shape="662.60,1214.58 666.41,1220.79"/>
        <lane id=":1272299472_1_1" index="1" disallow="tram rail_urban rail rail_electric rail_fast ship" speed="16.67" length="7.29" shape="665.32,1212.90 669.14,1219.11"/>
        <lane id=":1272299472_1_2" index="2" disallow="tram rail_urban rail rail_electric rail_fast ship" speed="16.67" length="7.29" shape="668.05,1211.23 671.86,1217.43"/>
    </edge>
    <edge id=":172518275_0" function="internal">
        <lane id=":172518275_0_0" index="0" disallow="pedestrian bicycle tram rail_urban rail rail_electric rail_fast ship" speed="19.44" length="7.79" shape="489.69,1054.42 491.75,1055.00 493.04,1055.80 494.32,1056.66 496.35,1057.44"/>
        <lane id=":172518275_0_1" index="1" disallow="pedestrian bicycle tram rail_urban rail rail_electric rail_fast ship" speed="19.44" length="7.79" shape="490.19,1051.26 492.35,1051.86 493.70,1052.67 495.04,1053.54 497.15,1054.35"/>
        <lane id=":172518275_0_2" index="2" disallow="pedestrian bicycle tram rail_urban rail rail_electric rail_fast ship" speed="19.44" length="7.79" shape="490.69,1048.10 492.94,1048.71 494.35,1049.53 495.76,1050.42 497.96,1051.25"/>
        <lane id=":172518275_0_3" index="3" disallow="pedestrian bicycle tram rail_urban rail rail_electric rail_fast ship" speed="19.44" length="7.79" shape="490.69,1048.10 493.09,1048.23 494.76,1047.98 496.42,1047.80 498.76,1048.15"/>
    </edge>
    <edge id=":172518302_0" function="internal">
        <lane id=":172518302_0_0" index="0" disallow="pedestrian bicycle tram rail_urban rail rail_electric rail_fast ship" speed="10.17" length="7.65" shape="582.20,1109.08 583.82,1110.53 584.54,1111.88 584.88,1113.50 585.36,1115.74"/>
    </edge>
    <edge id=":172518302_1" function="internal">
        <lane id=":172518302_1_0" index="0" disallow="pedestrian bicycle tram rail_urban rail rail_electric rail_fast ship" speed="19.44" length="9.36" shape="584.06,1106.48 585.86,1108.22 586.61,1109.83 587.22,1111.60 588.59,1113.79"/>
        <lane id=":172518302_1_1" index="1" disallow="pedestrian bicycle tram rail_urban rail rail_electric rail_fast ship" speed="19.44" length="9.36" shape="585.93,1103.88 587.80,1105.66 588.61,1107.29 589.28,1109.09 590.70,1111.33"/>
        <lane id=":172518302_1_2" index="2" disallow="pedestrian bicycle tram rail_urban rail rail_electric rail_fast ship" speed="19.44" length="9.36" shape="587.80,1101.29 589.74,1103.10 590.61,1104.75 591.34,1106.57 592.82,1108.87"/>
        <lane id=":172518302_1_3" index="3" disallow="pedestrian bicycle tram rail_urban rail rail_electric rail_fast ship" speed="19.44" length="9.36" shape="589.66,1098.69 591.67,1100.54 592.61,1102.21 593.40,1104.06 594.94,1106.41"/>
        <lane id=":172518302_1_4" index="4" disallow="pedestrian bicycle tram rail_urban rail rail_electric rail_fast ship" speed="19.44" length="9.36" shape="591.53,1096.09 593.53,1098.06 594.38,1099.90 595.19,1101.81 597.04,1103.97"/>
        <lane id=":172518302_1_5" index="5" disallow="pedestrian bicycle tram rail_urban rail rail_electric rail_fast ship" speed="19.44" length="9.36" shape="593.40,1093.49 595.46,1095.51 596.36,1097.39 597.22,1099.33 599.13,1101.54"/>
    </edge>
    <edge id=":1784948003_0" function="internal">
        <lane id=":1784948003_0_0" index="0" disallow="tram rail_urban rail rail_electric rail_fast ship" speed="5.33" length="4.94" shape="596.68,1217.31 596.51,1222.25"/>
    </edge>
    <edge id=":1784948003_1" function="internal">
        <lane id=":1784948003_1_0" index="0" disallow="tram rail_urban rail rail_electric rail_fast ship" speed="13.89" length="3.12" shape="596.68,1217.31 598.06,1217.40 599.00,1217.22 599.95,1216.91 601.33,1216.62"/>
        <lane id=":1784948003_1_1" index="1" disallow="tram rail_urban rail rail_electric rail_fast ship" speed="13.89" length="3.12" shape="599.90,1214.56 600.89,1213.45"/>
    </edge>
    <edge id=":1784948011_0" function="internal">
        <lane id=":1784948011_0_0" index="0" disallow="tram rail_urban rail rail_electric rail_fast ship" speed="3.65" length="4.67" shape="559.83,1281.50 561.16,1280.94 561.70,1280.23 561.46,1279.37 560.43,1278.36"/>
    </edge>
    <edge id=":1890424891_0" function="internal">
        <lane id=":1890424891_0_0" index="0" disallow="pedestrian tram rail_urban rail rail_electric rail_fast ship" speed="13.78" length="20.64" shape="651.04,1178.74 650.52,1182.46 651.24,1186.93 653.20,1192.15 656.41,1198.12"/>
        <lane id=":1890424891_0_1" index="1" disallow="pedestrian tram rail_urban rail rail_electric rail_fast ship" speed="12.85" length="17.87" shape="654.07,1179.78 653.71,1182.80 654.43,1186.59 656.25,1191.14 659.15,1196.47"/>
    </edge>
    <edge id=":1890424891_2" function="internal">
        <lane id=":1890424891_2_0" index="0" disallow="pedestrian tram rail_urban rail rail_electric rail_fast ship" speed="2.80" length="1.26" shape="657.09,1180.82 656.29,1181.79"/>
    </edge>
    <edge id=":1890424891_3" function="internal">
        <lane id=":1890424891_3_0" index="0" disallow="tram rail_urban rail rail_electric rail_fast ship" speed="16.67" length="22.13" shape="638.92,1198.49 659.74,1190.75"/>
        <lane id=":1890424891_3_1" index="1" disallow="tram rail_urban rail rail_electric rail_fast ship" speed="16.67" length="22.13" shape="637.82,1195.48 658.59,1187.76"/>
        <lane id=":1890424891_3_2" index="2" disallow="tram rail_urban rail rail_electric rail_fast ship" speed="16.67" length="22.13" shape="636.72,1192.48 657.44,1184.78"/>
        <lane id=":1890424891_3_3" index="3" disallow="tram rail_urban rail rail_electric rail_fast ship" speed="16.67" length="22.13" shape="635.62,1189.47 656.29,1181.79"/>
    </edge>
    <edge id=":1890424891_7" function="internal">
        <lane id=":1890424891_7_0" index="0" disallow="tram rail_urban rail rail_electric rail_fast ship" speed="16.67" length="28.32" shape="634.96,1178.79 640.04,1185.39 644.41,1189.23 648.74,1193.09 653.67,1199.78"/>
        <lane id=":1890424891_7_1" index="1" disallow="tram rail_urban rail rail_electric rail_fast ship" speed="16.67" length="28.32" shape="637.67,1177.08 642.75,1183.69 647.13,1187.54 651.47,1191.42 656.41,1198.12"/>
        <lane id=":1890424891_7_2" index="2" disallow="tram rail_urban rail rail_electric rail_fast ship" speed="16.67" length="28.32" shape="640.37,1175.37 645.46,1182.00 649.86,1185.86 654.20,1189.75 659.15,1196.47"/>
    </edge>
    <edge id=":1890424891_10" function="internal">
        <lane id=":1890424891_10_0" index="0" disallow="tram rail_urban rail rail_electric rail_fast ship" speed="10.63" length="21.96" shape="643.07,1173.66 647.88,1180.59 652.06,1185.26 655.64,1187.65 658.59,1187.76"/>
        <lane id=":1890424891_10_1" index="1" disallow="tram rail_urban rail rail_electric rail_fast ship" speed="9.61" length="17.79" shape="645.78,1171.94 649.81,1177.97 653.10,1182.12 655.65,1184.39 657.44,1184.78"/>
        <lane id=":1890424891_10_2" index="2" disallow="tram rail_urban rail rail_electric rail_fast ship" speed="8.58" length="14.00" shape="648.48,1170.23 649.80,1172.45 652.24,1176.46 654.76,1180.26 656.29,1181.79"/>
    </edge>
    <edge id=":1931968487_0" function="internal">
        <lane id=":1931968487_0_0" index="0" disallow="tram rail_urban rail rail_electric rail_fast ship" speed="13.89" length="14.44" shape="566.90,957.18 565.66,961.18 564.59,963.86 563.09,966.32 560.56,969.65"/>
        <lane id=":1931968487_0_1" index="1" disallow="tram rail_urban rail rail_electric rail_fast ship" speed="13.89" length="14.44" shape="569.79,958.67 568.48,962.83 567.33,965.61 565.73,968.16 563.08,971.63"/>
    </edge>
    <edge id=":1931968487_2" function="internal">
        <lane id=":1931968487_2_0" index="0" disallow="tram rail_urban rail rail_electric rail_fast ship" speed="12.56" length="14.48" shape="573.20,962.21 569.63,962.97 566.34,964.46 563.32,966.68 560.56,969.65"/>
        <lane id=":1931968487_2_1" index="1" disallow="tram rail_urban rail rail_electric rail_fast ship" speed="12.08" length="14.48" shape="575.01,965.24 571.44,965.93 568.26,967.23 565.47,969.13 563.08,971.63"/>
    </edge>
    <edge id=":1931968501_0" function="internal">
        <lane id=":1931968501_0_0" index="0" disallow="tram rail_urban rail rail_electric rail_fast ship" speed="9.45" length="7.94" shape="554.00,996.04 556.38,995.93 558.11,995.87 559.64,996.31 561.40,997.69"/>
        <lane id=":1931968501_0_1" index="1" disallow="tram rail_urban rail rail_electric rail_fast ship" speed="10.77" length="10.44" shape="554.02,992.84 557.13,992.76 559.38,992.82 561.36,993.54 563.66,995.42"/>
    </edge>
    <edge id=":1931968501_2" function="internal">
        <lane id=":1931968501_2_0" index="0" disallow="tram rail_urban rail rail_electric rail_fast ship" speed="13.89" length="9.33" shape="556.53,989.13 557.58,991.91 558.35,993.82 559.43,995.53 561.40,997.69"/>
        <lane id=":1931968501_2_1" index="1" disallow="tram rail_urban rail rail_electric rail_fast ship" speed="13.89" length="9.33" shape="559.49,987.92 560.40,990.34 561.04,992.03 561.95,993.53 563.66,995.42"/>
    </edge>
    <edge id=":1931968508_0" function="internal">
        <lane id=":1931968508_0_0" index="0" disallow="pedestrian bicycle tram rail_urban rail rail_electric rail_fast ship" speed="13.89" length="14.52" shape="569.72,1003.47 574.01,1005.17 577.16,1006.67 579.74,1008.30 582.35,1010.43"/>
    </edge>
    <edge id=":1931968508_1" function="internal">
        <lane id=":1931968508_1_0" index="0" disallow="tram rail_urban rail rail_electric rail_fast ship" speed="12.63" length="14.20" shape="569.72,1003.47 573.97,1004.78 577.80,1005.36 581.21,1005.20 584.22,1004.30"/>
        <lane id=":1931968508_1_1" index="1" disallow="tram rail_urban rail rail_electric rail_fast ship" speed="12.06" length="14.20" shape="570.85,1000.48 574.55,1001.59 577.98,1002.02 581.14,1001.78 584.03,1000.87"/>
    </edge>
    <edge id=":206401568_0" function="internal">
        <lane id=":206401568_0_0" index="0" disallow="tram rail_urban rail rail_electric rail_fast ship" speed="7.42" length="8.07" shape="676.22,1236.70 677.00,1238.50 677.17,1240.36 676.73,1242.29 675.69,1244.29"/>
    </edge>
    <edge id=":206401568_1" function="internal">
        <lane id=":206401568_1_0" index="0" disallow="tram rail_urban rail rail_electric rail_fast ship" speed="16.67" length="8.93" shape="676.22,1236.70 681.19,1244.27"/>
        <lane id=":206401568_1_1" index="1" disallow="tram rail_urban rail rail_electric rail_fast ship" speed="16.67" length="8.93" shape="678.94,1235.03 683.85,1242.48"/>
        <lane id=":206401568_1_2" index="2" disallow="tram rail_urban rail rail_electric rail_fast ship" speed="16.67" length="8.93" shape="681.67,1233.35 686.50,1240.69"/>
    </edge>
    <edge id=":206401690_0" function="internal">
        <lane id=":206401690_0_0" index="0" disallow="tram rail_urban rail rail_electric rail_fast ship" speed="16.67" length="33.24" shape="635.53,1139.17 602.35,1139.53"/>
        <lane id=":206401690_0_1" index="1" disallow="tram rail_urban rail rail_electric rail_fast ship" speed="16.67" length="33.24" shape="635.59,1142.37 602.37,1142.73"/>
        <lane id=":206401690_0_2" index="2" disallow="tram rail_urban rail rail_electric rail_fast ship" speed="16.67" length="33.24" shape="635.65,1145.57 602.39,1145.93"/>
        <lane id=":206401690_0_3" index="3" disallow="tram rail_urban rail rail_electric rail_fast ship" speed="16.67" length="33.24" shape="635.70,1148.77 602.41,1149.13"/>
    </edge>
    <edge id=":206401690_4" function="internal">
        <lane id=":206401690_4_0" index="0" disallow="pedestrian bicycle tram rail_urban rail rail_electric rail_fast ship" speed="18.05" length="35.55" shape="605.14,1133.93 611.66,1142.15 615.76,1148.05 619.53,1154.19 625.05,1163.13"/>
        <lane id=":206401690_4_1" index="1" disallow="pedestrian bicycle tram rail_urban rail rail_electric rail_fast ship" speed="18.05" length="35.55" shape="607.82,1132.15 614.35,1140.39 618.45,1146.30 622.22,1152.46 627.75,1161.42"/>
        <lane id=":206401690_4_2" index="2" disallow="pedestrian bicycle tram rail_urban rail rail_electric rail_fast ship" speed="18.05" length="35.55" shape="610.50,1130.37 617.04,1138.63 621.15,1144.56 624.92,1150.73 630.45,1159.70"/>
        <lane id=":206401690_4_3" index="3" disallow="pedestrian bicycle tram rail_urban rail rail_electric rail_fast ship" speed="18.05" length="35.55" shape="613.19,1128.60 619.73,1136.87 623.84,1142.81 627.61,1149.00 633.16,1157.99"/>
        <lane id=":206401690_4_4" index="4" disallow="pedestrian bicycle tram rail_urban rail rail_electric rail_fast ship" speed="18.05" length="35.55" shape="615.87,1126.82 622.42,1135.11 626.53,1141.07 630.31,1147.27 635.86,1156.28"/>
        <lane id=":206401690_4_5" index="5" disallow="pedestrian bicycle tram rail_urban rail rail_electric rail_fast ship" speed="18.05" length="35.55" shape="618.55,1125.04 625.11,1133.35 629.23,1139.32 633.01,1145.54 638.57,1154.57"/>
    </edge>
    <edge id=":206402697_0" function="internal">
        <lane id=":206402697_0_0" index="0" disallow="tram rail_urban rail rail_electric rail_fast ship" speed="16.67" length="19.74" shape="680.68,1189.88 677.18,1185.44 674.78,1182.41 672.50,1179.28 669.38,1174.57"/>
        <lane id=":206402697_0_1" index="1" disallow="tram rail_urban rail rail_electric rail_fast ship" speed="16.67" length="19.74" shape="678.15,1191.84 674.60,1187.33 672.16,1184.25 669.85,1181.08 666.69,1176.30"/>
        <lane id=":206402697_0_2" index="2" disallow="tram rail_urban rail rail_electric rail_fast ship" speed="16.67" length="19.74" shape="675.62,1193.80 672.02,1189.23 669.55,1186.10 667.20,1182.88 663.99,1178.03"/>
        <lane id=":206402697_0_3" index="3" disallow="tram rail_urban rail rail_electric rail_fast ship" speed="16.67" length="19.74" shape="673.09,1195.76 669.44,1191.12 666.93,1187.95 664.56,1184.68 661.30,1179.76"/>
        <lane id=":206402697_0_4" index="4" disallow="tram rail_urban rail rail_electric rail_fast ship" speed="16.67" length="19.74" shape="670.56,1197.72 666.86,1193.01 664.32,1189.80 661.91,1186.49 658.61,1181.50"/>
        <lane id=":206402697_0_5" index="5" disallow="tram rail_urban rail rail_electric rail_fast ship" speed="16.67" length="19.74" shape="668.03,1199.68 664.28,1194.91 661.70,1191.65 659.26,1188.29 655.92,1183.23"/>
    </edge>
    <edge id=":206402697_6" function="internal">
        <lane id=":206402697_6_0" index="0" disallow="tram rail_urban rail rail_electric rail_fast ship" speed="16.67" length="24.48" shape="659.93,1190.68 682.84,1183.02"/>
        <lane id=":206402697_6_1" index="1" disallow="tram rail_urban rail rail_electric rail_fast ship" speed="16.67" length="24.48" shape="658.78,1187.69 681.89,1179.97"/>
        <lane id=":206402697_6_2" index="2" disallow="tram rail_urban rail rail_electric rail_fast ship" speed="16.67" length="24.48" shape="657.63,1184.71 680.94,1176.91"/>
        <lane id=":206402697_6_3" index="3" disallow="tram rail_urban rail rail_electric rail_fast ship" speed="16.67" length="24.48" shape="656.48,1181.72 679.99,1173.86"/>
    </edge>
    <edge id=":206402705_0" function="internal">
        <lane id=":206402705_0_0" index="0" disallow="pedestrian tram rail_urban rail rail_electric rail_fast ship" speed="13.89" length="25.30" shape="669.83,1162.89 663.03,1165.67 657.65,1169.21 653.67,1173.50 651.10,1178.55"/>
        <lane id=":206402705_0_1" index="1" disallow="pedestrian tram rail_urban rail rail_electric rail_fast ship" speed="13.74" length="22.38" shape="670.86,1165.92 664.74,1168.40 659.91,1171.51 656.38,1175.24 654.13,1179.59"/>
        <lane id=":206402705_0_2" index="2" disallow="pedestrian tram rail_urban rail rail_electric rail_fast ship" speed="12.83" length="19.46" shape="671.89,1168.95 666.45,1171.13 662.18,1173.80 659.08,1176.97 657.16,1180.63"/>
    </edge>
    <edge id=":206402705_3" function="internal">
        <lane id=":206402705_3_0" index="0" disallow="tram rail_urban rail rail_electric rail_fast ship" speed="16.67" length="16.33" shape="669.27,1174.40 661.03,1161.08"/>
        <lane id=":206402705_3_1" index="1" disallow="tram rail_urban rail rail_electric rail_fast ship" speed="16.67" length="16.33" shape="666.58,1176.13 658.26,1162.69"/>
        <lane id=":206402705_3_2" index="2" disallow="tram rail_urban rail rail_electric rail_fast ship" speed="16.67" length="16.33" shape="663.89,1177.87 655.49,1164.30"/>
        <lane id=":206402705_3_3" index="3" disallow="tram rail_urban rail rail_electric rail_fast ship" speed="16.67" length="16.33" shape="661.19,1179.60 652.73,1165.91"/>
        <lane id=":206402705_3_4" index="4" disallow="tram rail_urban rail rail_electric rail_fast ship" speed="16.67" length="16.33" shape="661.19,1179.60 658.14,1175.78 655.46,1173.63 652.84,1171.44 649.96,1167.51"/>
        <lane id=":206402705_3_5" index="5" disallow="tram rail_urban rail rail_electric rail_fast ship" speed="16.67" length="16.33" shape="661.19,1179.60 657.63,1175.92 654.07,1174.44 650.57,1172.91 647.19,1169.12"/>
    </edge>
    <edge id=":206402705_9" function="internal">
        <lane id=":206402705_9_0" index="0" disallow="pedestrian tram rail_urban rail rail_electric rail_fast ship" speed="4.69" length="6.34" shape="658.50,1181.33 657.01,1179.33 655.79,1178.37 654.83,1178.46 654.13,1179.59"/>
        <lane id=":206402705_9_1" index="1" disallow="pedestrian tram rail_urban rail rail_electric rail_fast ship" speed="3.48" length="2.78" shape="655.81,1183.06 657.16,1180.63"/>
    </edge>
    <edge id=":243472537_0" function="internal">
        <lane id=":243472537_0_0" index="0" disallow="tram rail_urban rail rail_electric rail_fast ship" speed="16.67" length="8.53" shape="521.77,1266.68 522.44,1264.44 523.12,1262.99 524.03,1261.64 525.38,1259.71"/>
        <lane id=":243472537_0_1" index="1" disallow="tram rail_urban rail rail_electric rail_fast ship" speed="16.67" length="8.53" shape="518.67,1265.88 519.37,1263.47 520.07,1261.89 521.01,1260.41 522.45,1258.33"/>
        <lane id=":243472537_0_2" index="2" disallow="tram rail_urban rail rail_electric rail_fast ship" speed="16.67" length="8.53" shape="515.57,1265.09 516.31,1262.50 517.02,1260.78 518.00,1259.19 519.52,1256.95"/>
    </edge>
    <edge id=":243472537_3" function="internal">
        <lane id=":243472537_3_0" index="0" disallow="tram rail_urban rail rail_electric rail_fast ship" speed="15.28" length="8.73" shape="512.47,1264.30 513.27,1261.85 514.09,1260.27 514.96,1258.70 515.93,1256.31"/>
    </edge>
    <edge id=":243472538_0" function="internal">
        <lane id=":243472538_0_0" index="0" disallow="tram rail_urban rail rail_electric rail_fast ship" speed="16.67" length="8.29" shape="549.97,1233.82 552.00,1232.87 553.71,1232.96 555.46,1233.11 557.60,1232.34"/>
        <lane id=":243472538_0_1" index="1" disallow="tram rail_urban rail rail_electric rail_fast ship" speed="16.67" length="8.29" shape="548.00,1231.29 550.10,1230.29 551.86,1230.35 553.67,1230.46 555.88,1229.64"/>
        <lane id=":243472538_0_2" index="2" disallow="tram rail_urban rail rail_electric rail_fast ship" speed="16.67" length="8.29" shape="546.04,1228.77 548.20,1227.72 550.01,1227.73 551.87,1227.81 554.16,1226.94"/>
        <lane id=":243472538_0_3" index="3" disallow="tram rail_urban rail rail_electric rail_fast ship" speed="16.67" length="8.29" shape="546.04,1228.77 547.88,1227.34 549.16,1226.39 550.48,1225.50 552.44,1224.24"/>
        <lane id=":243472538_0_4" index="4" disallow="tram rail_urban rail rail_electric rail_fast ship" speed="16.67" length="8.29" shape="546.04,1228.77 547.69,1226.85 548.29,1225.03 548.93,1223.28 550.72,1221.54"/>
    </edge>
    <edge id=":2925460946_0" function="internal">
        <lane id=":2925460946_0_0" index="0" disallow="tram rail_urban rail rail_electric rail_fast ship" speed="13.89" length="12.46" shape="560.10,970.23 557.67,972.96 555.66,974.48 553.42,975.76 550.29,977.75"/>
        <lane id=":2925460946_0_1" index="1" disallow="tram rail_urban rail rail_electric rail_fast ship" speed="13.89" length="13.02" shape="560.10,970.23 557.92,973.43 556.60,975.81 555.04,977.93 552.13,980.37"/>
    </edge>
    <edge id=":2925460946_2" function="internal">
        <lane id=":2925460946_2_0" index="0" disallow="tram rail_urban rail rail_electric rail_fast ship" speed="13.65" length="13.28" shape="560.10,970.23 557.70,973.49 556.43,976.03 555.95,978.84 555.91,982.89"/>
        <lane id=":2925460946_2_1" index="1" disallow="tram rail_urban rail rail_electric rail_fast ship" speed="13.15" length="13.28" shape="562.62,972.21 560.45,975.24 559.41,977.64 559.10,980.28 559.13,984.06"/>
    </edge>
    <edge id=":2925460950_0" function="internal">
        <lane id=":2925460950_0_0" index="0" disallow="tram rail_urban rail rail_electric rail_fast ship" speed="11.12" length="8.37" shape="592.04,966.95 590.52,965.11 589.97,963.53 589.84,961.72 589.62,959.23"/>
        <lane id=":2925460950_0_1" index="1" disallow="tram rail_urban rail rail_electric rail_fast ship" speed="11.80" length="9.47" shape="592.04,966.95 589.88,965.11 588.28,963.83 587.16,962.30 586.45,959.71"/>
    </edge>
    <edge id=":2925460950_2" function="internal">
        <lane id=":2925460950_2_0" index="0" disallow="tram rail_urban rail rail_electric rail_fast ship" speed="13.89" length="9.46" shape="592.04,966.95 589.80,965.01 588.01,964.02 586.01,963.37 583.14,962.42"/>