<?xml version="1.0" encoding="UTF-8"?>

<!-- generated on 2023-07-20 11:40:12 by Eclipse SUMO netconvert Version 1.17.0
<configuration xmlns:xsi="http://www.w3.org/2001/XMLSchema-instance" xsi:noNamespaceSchemaLocation="http://sumo.dlr.de/xsd/netconvertConfiguration.xsd">

    <input>
        <sumo-net-file value="osm.net.xml.gz"/>
    </input>

    <output>
        <output-file value="osm.net.xml"/>
        <output.street-names value="true"/>
    </output>

    <processing>
        <geometry.min-radius.fix.railways value="false"/>
        <geometry.max-grade.fix value="false"/>
        <offset.disable-normalization value="true"/>
        <lefthand value="1"/>
    </processing>

    <junctions>
        <no-turnarounds value="true"/>
        <junctions.corner-detail value="5"/>
        <junctions.limit-turn-speed value="5.50"/>
        <rectangular-lane-cut value="0"/>
    </junctions>

    <pedestrian>
        <walkingareas value="0"/>
    </pedestrian>

</configuration>
-->

<net version="1.16" junctionCornerDetail="5" lefthand="true" limitTurnSpeed="5.50" xmlns:xsi="http://www.w3.org/2001/XMLSchema-instance" xsi:noNamespaceSchemaLocation="http://sumo.dlr.de/xsd/net_file.xsd">

    <location netOffset="-375389.03,-147872.02" convBoundary="0.00,0.00,2246.87,783.17" origBoundary="103.879919,1.337588,103.900114,1.344670" projParameter="+proj=utm +zone=48 +ellps=WGS84 +datum=WGS84 +units=m +no_defs"/>

    <type id="highway.bridleway" priority="1" numLanes="1" speed="2.78" allow="pedestrian" oneway="1" width="2.00"/>
    <type id="highway.bus_guideway" priority="1" numLanes="1" speed="27.78" allow="bus" oneway="1"/>
    <type id="highway.cycleway" priority="1" numLanes="1" speed="5.56" allow="bicycle" oneway="0" width="1.00"/>
    <type id="highway.footway" priority="1" numLanes="1" speed="2.78" allow="pedestrian" oneway="1" width="2.00"/>
    <type id="highway.ford" priority="1" numLanes="1" speed="2.78" allow="army" oneway="0"/>
    <type id="highway.living_street" priority="2" numLanes="1" speed="2.78" disallow="tram rail_urban rail rail_electric rail_fast ship" oneway="0"/>
    <type id="highway.motorway" priority="14" numLanes="2" speed="39.44" allow="private emergency authority army vip passenger hov taxi bus coach delivery truck trailer motorcycle evehicle custom1 custom2" oneway="1"/>
    <type id="highway.motorway_link" priority="9" numLanes="1" speed="22.22" allow="private emergency authority army vip passenger hov taxi bus coach delivery truck trailer motorcycle evehicle custom1 custom2" oneway="1"/>
    <type id="highway.path" priority="1" numLanes="1" speed="5.56" allow="pedestrian bicycle" oneway="0" width="2.00"/>
    <type id="highway.pedestrian" priority="1" numLanes="1" speed="2.78" allow="pedestrian" oneway="1" width="2.00"/>
    <type id="highway.primary" priority="12" numLanes="2" speed="27.78" disallow="tram rail_urban rail rail_electric rail_fast ship" oneway="0"/>
    <type id="highway.primary_link" priority="7" numLanes="1" speed="22.22" disallow="tram rail_urban rail rail_electric rail_fast ship" oneway="0"/>
    <type id="highway.raceway" priority="15" numLanes="2" speed="83.33" allow="vip" oneway="0"/>
    <type id="highway.residential" priority="3" numLanes="1" speed="13.89" disallow="tram rail_urban rail rail_electric rail_fast ship" oneway="0"/>
    <type id="highway.secondary" priority="11" numLanes="1" speed="27.78" disallow="tram rail_urban rail rail_electric rail_fast ship" oneway="0"/>
    <type id="highway.secondary_link" priority="6" numLanes="1" speed="22.22" disallow="tram rail_urban rail rail_electric rail_fast ship" oneway="0"/>
    <type id="highway.service" priority="1" numLanes="1" speed="5.56" allow="pedestrian delivery bicycle" oneway="0"/>
    <type id="highway.stairs" priority="1" numLanes="1" speed="1.39" allow="pedestrian" oneway="1" width="2.00"/>
    <type id="highway.step" priority="1" numLanes="1" speed="1.39" allow="pedestrian" oneway="1" width="2.00"/>
    <type id="highway.steps" priority="1" numLanes="1" speed="1.39" allow="pedestrian" oneway="1" width="2.00"/>
    <type id="highway.tertiary" priority="10" numLanes="1" speed="22.22" disallow="tram rail_urban rail rail_electric rail_fast ship" oneway="0"/>
    <type id="highway.tertiary_link" priority="5" numLanes="1" speed="22.22" disallow="tram rail_urban rail rail_electric rail_fast ship" oneway="0"/>
    <type id="highway.track" priority="1" numLanes="1" speed="5.56" allow="pedestrian motorcycle moped bicycle" oneway="0"/>
    <type id="highway.trunk" priority="13" numLanes="2" speed="27.78" disallow="pedestrian bicycle tram rail_urban rail rail_electric rail_fast ship" oneway="0"/>
    <type id="highway.trunk_link" priority="8" numLanes="1" speed="22.22" disallow="pedestrian bicycle tram rail_urban rail rail_electric rail_fast ship" oneway="0"/>
    <type id="highway.unclassified" priority="4" numLanes="1" speed="13.89" disallow="tram rail_urban rail rail_electric rail_fast ship" oneway="0"/>
    <type id="highway.unsurfaced" priority="1" numLanes="1" speed="8.33" disallow="tram rail_urban rail rail_electric rail_fast ship" oneway="0"/>
    <type id="railway.highspeed" priority="21" numLanes="1" speed="69.44" allow="rail_fast" oneway="1"/>
    <type id="railway.light_rail" priority="19" numLanes="1" speed="27.78" allow="rail_urban" oneway="1"/>
    <type id="railway.preserved" priority="16" numLanes="1" speed="27.78" allow="rail" oneway="1"/>
    <type id="railway.rail" priority="20" numLanes="1" speed="44.44" allow="rail" oneway="1"/>
    <type id="railway.subway" priority="18" numLanes="1" speed="27.78" allow="rail_urban" oneway="1"/>
    <type id="railway.tram" priority="17" numLanes="1" speed="13.89" allow="tram" oneway="1"/>

    <edge id=":1561754914_0" function="internal">
        <lane id=":1561754914_0_0" index="0" disallow="tram rail_urban rail rail_electric rail_fast ship" speed="13.89" length="57.02" shape="748.72,421.76 759.28,426.81 774.04,434.80 788.69,443.03 798.91,448.79"/>
        <lane id=":1561754914_0_1" index="1" disallow="tram rail_urban rail rail_electric rail_fast ship" speed="13.89" length="57.47" shape="749.86,418.77 760.48,423.85 775.38,431.90 790.17,440.20 800.46,445.99"/>
    </edge>
    <edge id=":1561754914_2" function="internal">
        <lane id=":1561754914_2_0" index="0" disallow="pedestrian bicycle tram rail_urban rail rail_electric rail_fast ship" speed="13.89" length="57.42" shape="749.86,418.77 802.03,442.77"/>
    </edge>
    <edge id=":239824768_0" function="internal">
        <lane id=":239824768_0_0" index="0" disallow="pedestrian bicycle tram rail_urban rail rail_electric rail_fast ship" speed="16.66" length="30.85" shape="222.54,474.39 231.58,470.88 238.90,469.02 245.43,467.74 252.15,465.98"/>
        <lane id=":239824768_0_1" index="1" disallow="pedestrian bicycle tram rail_urban rail rail_electric rail_fast ship" speed="16.66" length="31.88" shape="221.21,471.48 230.42,467.97 238.10,466.08 244.98,464.70 251.80,462.73"/>
    </edge>
    <edge id=":239824768_2" function="internal">
        <lane id=":239824768_2_0" index="0" disallow="pedestrian bicycle tram rail_urban rail rail_electric rail_fast ship" speed="19.44" length="31.98" shape="221.21,471.48 250.75,459.18"/>
        <lane id=":239824768_2_1" index="1" disallow="pedestrian bicycle tram rail_urban rail rail_electric rail_fast ship" speed="19.44" length="31.98" shape="219.87,468.57 249.38,456.28"/>
    </edge>
    <edge id=":239824782_0" function="internal">
        <lane id=":239824782_0_0" index="0" disallow="pedestrian bicycle tram rail_urban rail rail_electric rail_fast ship" speed="19.44" length="0.25" shape="367.59,407.11 367.70,407.07"/>
        <lane id=":239824782_0_1" index="1" disallow="pedestrian bicycle tram rail_urban rail rail_electric rail_fast ship" speed="19.44" length="0.25" shape="366.28,404.19 366.64,404.05"/>
    </edge>
    <edge id=":239825047_0" function="internal">
        <lane id=":239825047_0_0" index="0" disallow="tram rail_urban rail rail_electric rail_fast ship" speed="10.90" length="7.40" shape="754.92,166.03 754.47,163.87 754.14,162.32 754.21,160.84 754.97,158.86"/>
    </edge>
    <edge id=":239825047_1" function="internal">
        <lane id=":239825047_1_0" index="0" disallow="tram rail_urban rail rail_electric rail_fast ship" speed="13.89" length="7.37" shape="750.95,165.22 752.19,163.35 753.08,162.11 753.91,160.82 754.97,158.86"/>
        <lane id=":239825047_1_1" index="1" disallow="tram rail_urban rail rail_electric rail_fast ship" speed="13.89" length="7.37" shape="748.24,163.52 749.43,161.73 750.29,160.54 751.09,159.32 752.10,157.44"/>
    </edge>
    <edge id=":239825286_0" function="internal">
        <lane id=":239825286_0_0" index="0" disallow="tram rail_urban rail rail_electric rail_fast ship" speed="16.67" length="0.26" shape="606.65,316.39 606.57,316.48"/>
        <lane id=":239825286_0_1" index="1" disallow="tram rail_urban rail rail_electric rail_fast ship" speed="16.67" length="0.26" shape="609.11,318.43 608.85,318.73"/>
    </edge>
    <edge id=":239825435_0" function="internal">
        <lane id=":239825435_0_0" index="0" disallow="tram rail_urban rail rail_electric rail_fast ship" speed="16.67" length="0.10" shape="527.79,396.68 527.85,396.62"/>
        <lane id=":239825435_0_1" index="1" disallow="tram rail_urban rail rail_electric rail_fast ship" speed="16.67" length="0.10" shape="530.07,398.92 530.01,398.98"/>
    </edge>
    <edge id=":239885668_0" function="internal">
        <lane id=":239885668_0_0" index="0" disallow="pedestrian bicycle tram rail_urban rail rail_electric rail_fast ship" speed="19.44" length="0.82" shape="379.42,382.79 379.07,382.86 378.82,382.92 378.59,383.01 378.26,383.16"/>
        <lane id=":239885668_0_1" index="1" disallow="pedestrian bicycle tram rail_urban rail rail_electric rail_fast ship" speed="19.44" length="0.82" shape="380.00,385.94 379.88,385.96 379.80,385.98 379.73,386.01 379.62,386.06"/>
    </edge>
    <edge id=":377681001_0" function="internal">
        <lane id=":377681001_0_0" index="0" disallow="tram rail_urban rail rail_electric rail_fast ship" speed="13.89" length="8.34" shape="790.04,225.59 788.35,223.92 786.64,223.28 784.98,222.62 783.42,220.86"/>
    </edge>
    <edge id=":377681001_1" function="internal">
        <lane id=":377681001_1_0" index="0" disallow="tram rail_urban rail rail_electric rail_fast ship" speed="13.89" length="7.92" shape="777.84,224.00 782.02,230.86"/>
        <lane id=":377681001_1_1" index="1" disallow="tram rail_urban rail rail_electric rail_fast ship" speed="13.89" length="7.92" shape="780.63,222.43 784.69,229.11"/>
    </edge>
    <edge id=":377681004_0" function="internal">
        <lane id=":377681004_0_0" index="0" disallow="tram rail_urban rail rail_electric rail_fast ship" speed="13.89" length="7.85" shape="888.16,341.33 886.50,339.72 885.94,338.05 885.42,336.33 883.87,334.56"/>
        <lane id=":377681004_0_1" index="1" disallow="tram rail_urban rail rail_electric rail_fast ship" speed="13.89" length="7.85" shape="888.16,341.33 881.96,337.13"/>
    </edge>
    <edge id=":377681004_2" function="internal">
        <lane id=":377681004_2_0" index="0" disallow="tram rail_urban rail rail_electric rail_fast ship" speed="13.89" length="8.72" shape="878.15,342.27 880.38,343.30 882.23,343.27 884.13,343.19 886.48,344.05"/>
    </edge>
    <edge id=":377681005_0" function="internal">
        <lane id=":377681005_0_0" index="0" disallow="tram rail_urban rail rail_electric rail_fast ship" speed="13.89" length="8.42" shape="911.13,348.33 908.75,347.99 906.98,348.49 905.24,348.94 902.91,348.45"/>
    </edge>
    <edge id=":377681005_1" function="internal">
        <lane id=":377681005_1_0" index="0" disallow="tram rail_urban rail rail_electric rail_fast ship" speed="13.89" length="7.92" shape="901.61,351.37 908.94,354.34"/>
    </edge>
    <edge id=":377689660_0" function="internal">
        <lane id=":377689660_0_0" index="0" disallow="tram rail_urban rail rail_electric rail_fast ship" speed="13.89" length="31.92" shape="628.25,344.01 596.39,342.21"/>
        <lane id=":377689660_0_1" index="1" disallow="tram rail_urban rail rail_electric rail_fast ship" speed="13.89" length="31.92" shape="628.13,347.22 596.26,345.41"/>
        <lane id=":377689660_0_2" index="2" disallow="tram rail_urban rail rail_electric rail_fast ship" speed="13.89" length="31.92" shape="628.01,350.43 596.14,348.61"/>
        <lane id=":377689660_0_3" index="3" disallow="tram rail_urban rail rail_electric rail_fast ship" speed="13.89" length="31.92" shape="627.89,353.64 596.02,351.81"/>
    </edge>
    <edge id=":377689660_4" function="internal">
        <lane id=":377689660_4_0" index="0" disallow="tram rail_urban rail rail_electric rail_fast ship" speed="13.89" length="33.32" shape="600.52,359.78 625.85,337.87"/>
        <lane id=":377689660_4_1" index="1" disallow="tram rail_urban rail rail_electric rail_fast ship" speed="13.89" length="33.32" shape="600.52,359.78 623.50,335.69"/>
        <lane id=":377689660_4_2" index="2" disallow="tram rail_urban rail rail_electric rail_fast ship" speed="13.89" length="33.32" shape="598.26,357.52 621.16,333.52"/>
        <lane id=":377689660_4_3" index="3" disallow="tram rail_urban rail rail_electric rail_fast ship" speed="13.89" length="33.32" shape="598.26,357.52 602.88,352.18 606.99,346.40 611.88,339.64 618.81,331.34"/>
    </edge>
    <edge id=":377689660_8" function="internal">
        <lane id=":377689660_8_0" index="0" disallow="tram rail_urban rail rail_electric rail_fast ship" speed="6.52" length="14.26" shape="598.26,357.52 601.31,353.77 601.98,351.04 600.26,349.32 596.14,348.61"/>
        <lane id=":377689660_8_1" index="1" disallow="tram rail_urban rail rail_electric rail_fast ship" speed="5.49" length="9.63" shape="598.26,357.52 600.15,355.13 600.41,353.38 599.03,352.27 596.02,351.81"/>
    </edge>
    <edge id=":377701419_0" function="internal">
        <lane id=":377701419_0_0" index="0" disallow="pedestrian bicycle tram rail_urban rail rail_electric rail_fast ship" speed="13.89" length="11.31" shape="590.24,313.32 587.93,315.68 585.80,316.77 583.43,317.40 580.42,318.38"/>
    </edge>
    <edge id=":377701419_1" function="internal">
        <lane id=":377701419_1_0" index="0" disallow="tram rail_urban rail rail_electric rail_fast ship" speed="13.89" length="12.70" shape="592.77,315.28 590.21,317.68 587.85,318.61 585.37,319.44 582.43,321.48"/>
        <lane id=":377701419_1_1" index="1" disallow="tram rail_urban rail rail_electric rail_fast ship" speed="13.89" length="12.70" shape="595.30,317.24 592.65,319.75 590.23,320.77 587.67,321.66 584.63,323.81"/>
        <lane id=":377701419_1_2" index="2" disallow="tram rail_urban rail rail_electric rail_fast ship" speed="13.89" length="12.70" shape="597.82,319.21 595.09,321.83 592.60,322.92 589.98,323.89 586.83,326.13"/>
    </edge>
    <edge id=":377701420_0" function="internal">
        <lane id=":377701420_0_0" index="0" disallow="tram rail_urban rail rail_electric rail_fast ship" speed="13.89" length="8.19" shape="626.59,272.58 624.85,274.27 623.40,275.15 621.96,276.05 620.25,277.75"/>
        <lane id=":377701420_0_1" index="1" disallow="tram rail_urban rail rail_electric rail_fast ship" speed="13.89" length="8.19" shape="629.04,274.63 627.31,276.31 625.87,277.19 624.43,278.07 622.73,279.77"/>
        <lane id=":377701420_0_2" index="2" disallow="tram rail_urban rail rail_electric rail_fast ship" speed="13.89" length="8.19" shape="629.04,274.63 627.70,276.62 627.11,278.20 626.53,279.78 625.22,281.79"/>
    </edge>
    <edge id=":377707785_0" function="internal">
        <lane id=":377707785_0_0" index="0" disallow="tram rail_urban rail rail_electric rail_fast ship" speed="15.28" length="13.96" shape="560.23,410.17 563.36,407.05 565.79,404.79 568.14,403.05 571.05,401.49"/>
    </edge>
    <edge id=":377707785_1" function="internal">
        <lane id=":377707785_1_0" index="0" disallow="tram rail_urban rail rail_electric rail_fast ship" speed="16.67" length="15.98" shape="557.99,407.88 561.27,404.41 563.30,401.84 565.23,399.19 568.24,395.47"/>
        <lane id=":377707785_1_1" index="1" disallow="tram rail_urban rail rail_electric rail_fast ship" speed="16.67" length="15.98" shape="555.75,405.60 558.97,402.19 560.96,399.66 562.86,397.04 565.81,393.38"/>
    </edge>
    <edge id=":377707785_3" function="internal">
        <lane id=":377707785_3_0" index="0" disallow="pedestrian bicycle tram rail_urban rail rail_electric rail_fast ship" speed="10.82" length="14.15" shape="553.51,403.31 556.53,399.94 558.56,396.78 559.61,393.84 559.68,391.10"/>
        <lane id=":377707785_3_1" index="1" disallow="pedestrian bicycle tram rail_urban rail rail_electric rail_fast ship" speed="10.64" length="13.67" shape="553.51,403.31 555.27,400.94 556.33,398.00 556.68,394.50 556.33,390.44"/>
        <lane id=":377707785_3_2" index="2" disallow="pedestrian bicycle tram rail_urban rail rail_electric rail_fast ship" speed="10.65" length="13.69" shape="553.51,403.31 554.02,401.93 554.10,399.22 553.75,395.17 552.98,389.78"/>
    </edge>
    <edge id=":3832436844_0" function="internal">
        <lane id=":3832436844_0_0" index="0" disallow="tram rail_urban rail rail_electric rail_fast ship" speed="16.67" length="8.21" shape="396.97,501.96 395.12,503.51 393.62,504.28 392.11,505.05 390.26,506.60"/>
    </edge>
    <edge id=":4604821659_0" function="internal">
        <lane id=":4604821659_0_0" index="0" disallow="tram rail_urban rail rail_electric rail_fast ship" speed="13.53" length="14.32" shape="732.43,194.73 735.12,191.25 737.78,189.21 740.65,187.99 743.94,186.96"/>
    </edge>
    <edge id=":4604821659_1" function="internal">
        <lane id=":4604821659_1_0" index="0" disallow="tram rail_urban rail rail_electric rail_fast ship" speed="13.89" length="14.43" shape="732.43,194.73 740.10,182.51"/>
        <lane id=":4604821659_1_1" index="1" disallow="tram rail_urban rail rail_electric rail_fast ship" speed="13.89" length="14.43" shape="729.72,193.03 737.39,180.81"/>
    </edge>
    <edge id=":4604821664_0" function="internal">
        <lane id=":4604821664_0_0" index="0" disallow="tram rail_urban rail rail_electric rail_fast ship" speed="13.89" length="3.37" shape="762.95,184.93 760.05,183.21"/>
    </edge>
    <edge id=":4604821664_1" function="internal">
        <lane id=":4604821664_1_0" index="0" disallow="tram rail_urban rail rail_electric rail_fast ship" speed="6.42" length="5.06" shape="754.35,185.90 755.22,186.14 756.04,186.63 756.81,187.36 757.52,188.33"/>
        <lane id=":4604821664_1_1" index="1" disallow="tram rail_urban rail rail_electric rail_fast ship" speed="7.61" length="5.06" shape="754.35,185.90 755.61,185.95 757.46,186.00 759.23,186.18 760.23,186.63"/>
    </edge>
    <edge id=":4702371503_0" function="internal">
        <lane id=":4702371503_0_0" index="0" disallow="tram rail_urban rail rail_electric rail_fast ship" speed="16.67" length="8.16" shape="520.37,444.60 522.38,443.23 523.97,442.59 525.55,441.94 527.52,440.52"/>
        <lane id=":4702371503_0_1" index="1" disallow="tram rail_urban rail rail_electric rail_fast ship" speed="16.67" length="8.16" shape="518.31,442.15 520.30,440.80 521.87,440.18 523.44,439.54 525.38,438.13"/>
        <lane id=":4702371503_0_2" index="2" disallow="tram rail_urban rail rail_electric rail_fast ship" speed="16.67" length="8.16" shape="516.24,439.71 518.22,438.37 519.78,437.76 521.32,437.13 523.25,435.75"/>
        <lane id=":4702371503_0_3" index="3" disallow="tram rail_urban rail rail_electric rail_fast ship" speed="16.67" length="8.16" shape="516.24,439.71 517.88,438.00 518.71,436.57 519.53,435.11 521.12,433.36"/>
    </edge>
    <edge id=":4702371506_0" function="internal">
        <lane id=":4702371506_0_0" index="0" disallow="tram rail_urban rail rail_electric rail_fast ship" speed="13.89" length="12.11" shape="548.05,356.72 539.18,364.86"/>
        <lane id=":4702371506_0_1" index="1" disallow="tram rail_urban rail rail_electric rail_fast ship" speed="13.89" length="12.11" shape="550.23,359.06 541.31,367.25"/>
        <lane id=":4702371506_0_2" index="2" disallow="tram rail_urban rail rail_electric rail_fast ship" speed="13.89" length="12.11" shape="552.42,361.40 543.43,369.64"/>
    </edge>
    <edge id=":4702371506_3" function="internal">
        <lane id=":4702371506_3_0" index="0" disallow="pedestrian bicycle tram rail_urban rail rail_electric rail_fast ship" speed="13.89" length="14.16" shape="550.18,366.22 547.45,362.94 545.00,361.26 542.21,359.91 538.45,357.66"/>
        <lane id=":4702371506_3_1" index="1" disallow="pedestrian bicycle tram rail_urban rail rail_electric rail_fast ship" speed="13.89" length="14.16" shape="547.54,368.03 545.01,365.03 542.71,363.53 540.10,362.33 536.61,360.28"/>
    </edge>
    <edge id=":4702371508_0" function="internal">
        <lane id=":4702371508_0_0" index="0" disallow="pedestrian bicycle tram rail_urban rail rail_electric rail_fast ship" speed="13.89" length="19.41" shape="558.61,384.94 557.04,379.07 555.65,375.12 553.66,371.44 550.29,366.39"/>
        <lane id=":4702371508_0_1" index="1" disallow="pedestrian bicycle tram rail_urban rail rail_electric rail_fast ship" speed="13.89" length="19.41" shape="555.52,385.75 554.03,380.20 552.72,376.46 550.84,372.98 547.66,368.20"/>
        <lane id=":4702371508_0_2" index="2" disallow="pedestrian bicycle tram rail_urban rail rail_electric rail_fast ship" speed="13.89" length="19.41" shape="552.42,386.56 551.02,381.33 549.79,377.80 548.02,374.52 545.02,370.01"/>
    </edge>
    <edge id=":4702371508_3" function="internal">
        <lane id=":4702371508_3_0" index="0" disallow="tram rail_urban rail rail_electric rail_fast ship" speed="13.89" length="19.06" shape="544.06,378.99 563.15,379.07"/>
        <lane id=":4702371508_3_1" index="1" disallow="tram rail_urban rail rail_electric rail_fast ship" speed="13.89" length="19.06" shape="544.09,375.79 563.15,375.87"/>
        <lane id=":4702371508_3_2" index="2" disallow="tram rail_urban rail rail_electric rail_fast ship" speed="13.89" length="19.06" shape="544.12,372.59 563.15,372.67"/>
    </edge>
    <edge id=":4702371509_0" function="internal">
        <lane id=":4702371509_0_0" index="0" disallow="pedestrian bicycle tram rail_urban rail rail_electric rail_fast ship" speed="13.89" length="34.55" shape="537.16,339.07 531.28,340.54 522.09,341.89 511.89,343.05 503.00,343.91"/>
    </edge>
    <edge id=":4702371509_1" function="internal">
        <lane id=":4702371509_1_0" index="0" disallow="pedestrian bicycle tram rail_urban rail rail_electric rail_fast ship" speed="13.89" length="34.58" shape="537.73,343.85 529.48,343.67 520.35,343.49 511.22,343.50 503.00,343.91"/>
        <lane id=":4702371509_1_1" index="1" disallow="pedestrian bicycle tram rail_urban rail rail_electric rail_fast ship" speed="13.89" length="34.58" shape="537.69,347.05 529.49,346.87 520.47,346.68 511.46,346.68 503.29,347.09"/>
    </edge>
    <edge id=":4702371509_3" function="internal">
        <lane id=":4702371509_3_0" index="0" disallow="pedestrian bicycle tram rail_urban rail rail_electric rail_fast ship" speed="13.89" length="27.45" shape="529.52,351.40 523.32,347.68 516.92,345.16 510.19,343.89 503.00,343.91"/>
        <lane id=":4702371509_3_1" index="1" disallow="pedestrian bicycle tram rail_urban rail rail_electric rail_fast ship" speed="13.89" length="27.45" shape="528.36,354.50 522.39,350.79 516.49,348.30 510.26,347.06 503.29,347.09"/>
    </edge>
    <edge id=":4914394345_0" function="internal">
        <lane id=":4914394345_0_0" index="0" disallow="tram rail_urban rail rail_electric rail_fast ship" speed="16.67" length="13.35" shape="550.54,419.96 560.09,410.31"/>
        <lane id=":4914394345_0_1" index="1" disallow="tram rail_urban rail rail_electric rail_fast ship" speed="16.67" length="13.35" shape="548.41,417.57 557.85,408.02"/>
        <lane id=":4914394345_0_2" index="2" disallow="tram rail_urban rail rail_electric rail_fast ship" speed="16.67" length="13.35" shape="546.28,415.18 555.61,405.74"/>
        <lane id=":4914394345_0_3" index="3" disallow="tram rail_urban rail rail_electric rail_fast ship" speed="16.67" length="13.35" shape="544.15,412.80 553.37,403.45"/>
    </edge>
    <edge id=":4914394345_4" function="internal">
        <lane id=":4914394345_4_0" index="0" disallow="tram rail_urban rail rail_electric rail_fast ship" speed="13.86" length="16.93" shape="544.15,412.80 547.80,408.88 549.89,405.23 550.91,401.66 551.35,398.02"/>
    </edge>
    <edge id=":4914394350_0" function="internal">
        <lane id=":4914394350_0_0" index="0" disallow="tram rail_urban rail rail_electric rail_fast ship" speed="16.67" length="3.16" shape="523.05,381.29 520.66,383.38"/>
        <lane id=":4914394350_0_1" index="1" disallow="tram rail_urban rail rail_electric rail_fast ship" speed="16.67" length="3.16" shape="525.16,383.69 522.80,385.76"/>
    </edge>
    <edge id=":4914394350_2" function="internal">
        <lane id=":4914394350_2_0" index="0" disallow="tram rail_urban rail rail_electric rail_fast ship" speed="13.08" length="9.17" shape="531.35,383.23 528.63,383.52 526.67,383.66 524.92,384.21 522.80,385.76"/>
    </edge>
    <edge id=":4914407221_0" function="internal">
        <lane id=":4914407221_0_0" index="0" disallow="pedestrian bicycle tram rail_urban rail rail_electric rail_fast ship" speed="13.89" length="15.85" shape="500.67,344.12 484.96,345.56"/>
        <lane id=":4914407221_0_1" index="1" disallow="pedestrian bicycle tram rail_urban rail rail_electric rail_fast ship" speed="13.89" length="15.85" shape="500.97,347.31 485.12,348.76"/>
    </edge>
    <edge id=":4914407221_2" function="internal">
        <lane id=":4914407221_2_0" index="0" disallow="pedestrian bicycle tram rail_urban rail rail_electric rail_fast ship" speed="13.89" length="15.83" shape="500.47,351.98 497.16,350.79 493.94,349.66 490.15,348.88 485.12,348.76"/>
    </edge>
    <edge id=":5120216247_0" function="internal">
        <lane id=":5120216247_0_0" index="0" disallow="tram rail_urban rail rail_electric rail_fast ship" speed="13.89" length="10.88" shape="997.22,375.43 994.32,375.44 992.31,377.05 990.32,378.68 987.49,378.75"/>
    </edge>
    <edge id=":5120216247_1" function="internal">
        <lane id=":5120216247_1_0" index="0" disallow="tram rail_urban rail rail_electric rail_fast ship" speed="13.89" length="8.75" shape="985.38,384.79 987.85,385.13 989.66,384.60 991.46,384.08 993.92,384.45"/>
    </edge>
    <edge id=":5984809515_0" function="internal">
        <lane id=":5984809515_0_0" index="0" disallow="tram rail_urban rail rail_electric rail_fast ship" speed="13.89" length="8.19" shape="614.29,285.10 612.57,286.82 611.13,287.74 609.70,288.66 608.02,290.42"/>
        <lane id=":5984809515_0_1" index="1" disallow="tram rail_urban rail rail_electric rail_fast ship" speed="13.89" length="8.19" shape="614.29,285.10 612.97,287.12 612.39,288.72 611.83,290.32 610.55,292.38"/>
        <lane id=":5984809515_0_2" index="2" disallow="tram rail_urban rail rail_electric rail_fast ship" speed="13.89" length="8.19" shape="616.77,287.11 615.47,289.12 614.90,290.71 614.35,292.30 613.08,294.34"/>
        <lane id=":5984809515_0_3" index="3" disallow="tram rail_urban rail rail_electric rail_fast ship" speed="13.89" length="8.19" shape="619.26,289.13 617.96,291.12 617.41,292.70 616.86,294.28 615.61,296.30"/>
    </edge>
    <edge id=":6094667785_0" function="internal">
        <lane id=":6094667785_0_0" index="0" disallow="tram rail_urban rail rail_electric rail_fast ship" speed="16.67" length="8.21" shape="492.98,465.65 494.95,464.28 496.52,463.66 498.09,463.05 500.08,461.70"/>
        <lane id=":6094667785_0_1" index="1" disallow="tram rail_urban rail rail_electric rail_fast ship" speed="16.67" length="8.21" shape="490.89,463.23 492.87,461.85 494.44,461.23 496.02,460.61 498.02,459.25"/>
        <lane id=":6094667785_0_2" index="2" disallow="tram rail_urban rail rail_electric rail_fast ship" speed="16.67" length="8.21" shape="490.89,463.23 492.55,461.47 493.41,460.00 494.28,458.55 495.95,456.81"/>
    </edge>
    <edge id=":6114492307_0" function="internal">
        <lane id=":6114492307_0_0" index="0" disallow="tram rail_urban rail rail_electric rail_fast ship" speed="13.89" length="7.53" shape="752.82,378.12 750.78,376.93 749.53,375.81 748.25,374.78 746.12,373.83"/>
        <lane id=":6114492307_0_1" index="1" disallow="tram rail_urban rail rail_electric rail_fast ship" speed="13.89" length="7.53" shape="751.50,381.04 749.55,379.89 748.38,378.80 747.17,377.79 745.14,376.87"/>
        <lane id=":6114492307_0_2" index="2" disallow="tram rail_urban rail rail_electric rail_fast ship" speed="13.89" length="7.53" shape="750.18,383.95 748.33,382.85 747.23,381.79 746.09,380.81 744.16,379.92"/>
        <lane id=":6114492307_0_3" index="3" disallow="tram rail_urban rail rail_electric rail_fast ship" speed="13.89" length="7.53" shape="750.18,383.95 748.20,383.33 746.74,383.32 745.24,383.37 743.18,382.96"/>
    </edge>
    <edge id=":6142966931_0" function="internal">
        <lane id=":6142966931_0_0" index="0" disallow="tram rail_urban rail rail_electric rail_fast ship" speed="3.65" length="4.67" shape="1062.15,409.39 1063.55,409.05 1064.20,408.44 1064.10,407.55 1063.25,406.39"/>
    </edge>
    <edge id=":6228950848_0" function="internal">
        <lane id=":6228950848_0_0" index="0" disallow="tram rail_urban rail rail_electric rail_fast ship" speed="13.89" length="8.54" shape="1016.81,386.00 1014.66,384.68 1013.60,383.12 1012.53,381.56 1010.39,380.24"/>