<?xml version="1.0" encoding="UTF-8"?>

<!-- generated on 2023-07-11 14:02:13 by Eclipse SUMO netconvert Version 1.17.0
<configuration xmlns:xsi="http://www.w3.org/2001/XMLSchema-instance" xsi:noNamespaceSchemaLocation="http://sumo.dlr.de/xsd/netconvertConfiguration.xsd">

    <input>
        <sumo-net-file value="osm.net.xml.gz"/>
    </input>

    <output>
        <output-file value="osm.net.xml"/>
        <output.street-names value="true"/>
    </output>

    <processing>
        <geometry.min-radius.fix.railways value="false"/>
        <geometry.max-grade.fix value="false"/>
        <offset.disable-normalization value="true"/>
        <lefthand value="1"/>
    </processing>

    <junctions>
        <no-turnarounds value="true"/>
        <junctions.corner-detail value="5"/>
        <junctions.limit-turn-speed value="5.50"/>
        <rectangular-lane-cut value="0"/>
    </junctions>

    <pedestrian>
        <walkingareas value="0"/>
    </pedestrian>

</configuration>
-->

<net version="1.16" junctionCornerDetail="5" lefthand="true" limitTurnSpeed="5.50" xmlns:xsi="http://www.w3.org/2001/XMLSchema-instance" xsi:noNamespaceSchemaLocation="http://sumo.dlr.de/xsd/net_file.xsd">

    <location netOffset="-361194.20,-153316.93" convBoundary="0.00,0.00,1200.75,560.12" origBoundary="103.752322,1.386775,103.763113,1.391840" projParameter="+proj=utm +zone=48 +ellps=WGS84 +datum=WGS84 +units=m +no_defs"/>

    <type id="highway.bridleway" priority="1" numLanes="1" speed="2.78" allow="pedestrian" oneway="1" width="2.00"/>
    <type id="highway.bus_guideway" priority="1" numLanes="1" speed="27.78" allow="bus" oneway="1"/>
    <type id="highway.cycleway" priority="1" numLanes="1" speed="5.56" allow="bicycle" oneway="0" width="1.00"/>
    <type id="highway.footway" priority="1" numLanes="1" speed="2.78" allow="pedestrian" oneway="1" width="2.00"/>
    <type id="highway.ford" priority="1" numLanes="1" speed="2.78" allow="army" oneway="0"/>
    <type id="highway.living_street" priority="2" numLanes="1" speed="2.78" disallow="tram rail_urban rail rail_electric rail_fast ship" oneway="0"/>
    <type id="highway.motorway" priority="14" numLanes="2" speed="39.44" allow="private emergency authority army vip passenger hov taxi bus coach delivery truck trailer motorcycle evehicle custom1 custom2" oneway="1"/>
    <type id="highway.motorway_link" priority="9" numLanes="1" speed="22.22" allow="private emergency authority army vip passenger hov taxi bus coach delivery truck trailer motorcycle evehicle custom1 custom2" oneway="1"/>
    <type id="highway.path" priority="1" numLanes="1" speed="5.56" allow="pedestrian bicycle" oneway="0" width="2.00"/>
    <type id="highway.pedestrian" priority="1" numLanes="1" speed="2.78" allow="pedestrian" oneway="1" width="2.00"/>
    <type id="highway.primary" priority="12" numLanes="2" speed="27.78" disallow="tram rail_urban rail rail_electric rail_fast ship" oneway="0"/>
    <type id="highway.primary_link" priority="7" numLanes="1" speed="22.22" disallow="tram rail_urban rail rail_electric rail_fast ship" oneway="0"/>
    <type id="highway.raceway" priority="15" numLanes="2" speed="83.33" allow="vip" oneway="0"/>
    <type id="highway.residential" priority="3" numLanes="1" speed="13.89" disallow="tram rail_urban rail rail_electric rail_fast ship" oneway="0"/>
    <type id="highway.secondary" priority="11" numLanes="1" speed="27.78" disallow="tram rail_urban rail rail_electric rail_fast ship" oneway="0"/>
    <type id="highway.secondary_link" priority="6" numLanes="1" speed="22.22" disallow="tram rail_urban rail rail_electric rail_fast ship" oneway="0"/>
    <type id="highway.service" priority="1" numLanes="1" speed="5.56" allow="pedestrian delivery bicycle" oneway="0"/>
    <type id="highway.stairs" priority="1" numLanes="1" speed="1.39" allow="pedestrian" oneway="1" width="2.00"/>
    <type id="highway.step" priority="1" numLanes="1" speed="1.39" allow="pedestrian" oneway="1" width="2.00"/>
    <type id="highway.steps" priority="1" numLanes="1" speed="1.39" allow="pedestrian" oneway="1" width="2.00"/>
    <type id="highway.tertiary" priority="10" numLanes="1" speed="22.22" disallow="tram rail_urban rail rail_electric rail_fast ship" oneway="0"/>
    <type id="highway.tertiary_link" priority="5" numLanes="1" speed="22.22" disallow="tram rail_urban rail rail_electric rail_fast ship" oneway="0"/>
    <type id="highway.track" priority="1" numLanes="1" speed="5.56" allow="pedestrian motorcycle moped bicycle" oneway="0"/>
    <type id="highway.trunk" priority="13" numLanes="2" speed="27.78" disallow="pedestrian bicycle tram rail_urban rail rail_electric rail_fast ship" oneway="0"/>
    <type id="highway.trunk_link" priority="8" numLanes="1" speed="22.22" disallow="pedestrian bicycle tram rail_urban rail rail_electric rail_fast ship" oneway="0"/>
    <type id="highway.unclassified" priority="4" numLanes="1" speed="13.89" disallow="tram rail_urban rail rail_electric rail_fast ship" oneway="0"/>
    <type id="highway.unsurfaced" priority="1" numLanes="1" speed="8.33" disallow="tram rail_urban rail rail_electric rail_fast ship" oneway="0"/>
    <type id="railway.highspeed" priority="21" numLanes="1" speed="69.44" allow="rail_fast" oneway="1"/>
    <type id="railway.light_rail" priority="19" numLanes="1" speed="27.78" allow="rail_urban" oneway="1"/>
    <type id="railway.preserved" priority="16" numLanes="1" speed="27.78" allow="rail" oneway="1"/>
    <type id="railway.rail" priority="20" numLanes="1" speed="44.44" allow="rail" oneway="1"/>
    <type id="railway.subway" priority="18" numLanes="1" speed="27.78" allow="rail_urban" oneway="1"/>
    <type id="railway.tram" priority="17" numLanes="1" speed="13.89" allow="tram" oneway="1"/>

    <edge id=":10115292029_0" function="internal">
        <lane id=":10115292029_0_0" index="0" allow="pedestrian delivery bicycle" speed="3.65" length="4.67" shape="681.60,64.58 682.52,63.47 682.67,62.59 682.06,61.94 680.68,61.52"/>
    </edge>
    <edge id=":10115292030_0" function="internal">
        <lane id=":10115292030_0_0" index="0" allow="pedestrian delivery bicycle" speed="5.56" length="4.89" shape="674.50,63.38 673.16,63.65 671.94,63.62 670.85,63.27 669.89,62.62"/>
    </edge>
    <edge id=":10115292030_1" function="internal">
        <lane id=":10115292030_1_0" index="0" allow="pedestrian delivery bicycle" speed="5.56" length="8.76" shape="674.50,63.38 672.39,64.33 670.88,65.74 669.96,67.59 669.65,69.88"/>
    </edge>
    <edge id=":10115292030_2" function="internal">
        <lane id=":10115292030_2_0" index="0" allow="pedestrian delivery bicycle" speed="3.65" length="4.67" shape="674.50,63.38 673.59,64.49 673.44,65.38 674.05,66.03 675.43,66.45"/>
    </edge>
    <edge id=":10115292030_3" function="internal">
        <lane id=":10115292030_3_0" index="0" allow="pedestrian delivery bicycle" speed="5.46" length="4.66" shape="672.85,69.90 673.01,68.68 673.50,67.70 674.31,66.95 675.43,66.45"/>
    </edge>
    <edge id=":10115292030_4" function="internal">
        <lane id=":10115292030_4_0" index="0" allow="pedestrian delivery bicycle" speed="5.56" length="8.10" shape="672.85,69.90 672.67,67.73 672.12,65.79 671.20,64.09 669.89,62.62"/>
    </edge>
    <edge id=":10115292030_5" function="internal">
        <lane id=":10115292030_5_0" index="0" allow="pedestrian delivery bicycle" speed="3.65" length="4.67" shape="672.85,69.90 672.05,68.70 671.26,68.29 670.45,68.69 669.65,69.88"/>
    </edge>
    <edge id=":10115292030_6" function="internal">
        <lane id=":10115292030_6_0" index="0" allow="pedestrian delivery bicycle" speed="5.56" length="5.41" shape="667.74,64.99 668.58,65.95 669.18,67.08 669.54,68.40 669.65,69.88"/>
    </edge>
    <edge id=":10115292030_7" function="internal">
        <lane id=":10115292030_7_0" index="0" allow="pedestrian delivery bicycle" speed="5.56" length="8.20" shape="667.74,64.99 669.39,66.14 671.23,66.77 673.24,66.87 675.43,66.45"/>
    </edge>
    <edge id=":10115292030_8" function="internal">
        <lane id=":10115292030_8_0" index="0" allow="pedestrian delivery bicycle" speed="3.65" length="4.67" shape="667.74,64.99 669.17,65.20 670.00,64.88 670.24,64.02 669.89,62.62"/>
    </edge>
    <edge id=":1481210268_0" function="internal">
        <lane id=":1481210268_0_0" index="0" allow="private emergency authority army vip passenger hov taxi bus coach delivery truck trailer motorcycle evehicle custom1 custom2" speed="13.89" length="17.48" shape="607.25,116.63 605.17,113.70 603.48,110.33 601.33,106.44 597.85,101.96"/>
    </edge>
    <edge id=":1481210268_1" function="internal">
        <lane id=":1481210268_1_0" index="0" allow="private emergency authority army vip passenger hov taxi bus coach delivery truck trailer motorcycle evehicle custom1 custom2" speed="13.89" length="16.83" shape="604.41,118.73 602.04,114.20 600.54,111.01 598.74,108.02 595.50,104.14"/>
        <lane id=":1481210268_1_1" index="1" allow="private emergency authority army vip passenger hov taxi bus coach delivery truck trailer motorcycle evehicle custom1 custom2" speed="13.89" length="16.83" shape="601.64,120.32 599.37,115.98 597.95,112.91 596.25,110.04 593.15,106.31"/>
    </edge>
    <edge id=":1481210305_0" function="internal">
        <lane id=":1481210305_0_0" index="0" allow="private emergency authority army vip passenger hov taxi bus coach delivery truck trailer motorcycle evehicle custom1 custom2" speed="13.89" length="8.20" shape="413.54,273.14 415.89,273.66 417.40,274.40 418.92,275.15 421.26,275.71"/>
        <lane id=":1481210305_0_1" index="1" allow="private emergency authority army vip passenger hov taxi bus coach delivery truck trailer motorcycle evehicle custom1 custom2" speed="13.89" length="8.20" shape="413.54,273.14 415.95,273.17 417.61,272.81 419.27,272.47 421.68,272.54"/>
    </edge>
    <edge id=":1500901721_0" function="internal">
        <lane id=":1500901721_0_0" index="0" allow="private emergency authority army vip passenger hov taxi bus coach delivery truck trailer motorcycle evehicle custom1 custom2" speed="13.89" length="8.17" shape="455.26,196.55 452.87,196.47 451.25,196.01 449.63,195.53 447.24,195.35"/>
    </edge>
    <edge id=":1500901729_0" function="internal">
        <lane id=":1500901729_0_0" index="0" allow="private emergency authority army vip passenger hov taxi bus coach delivery truck trailer motorcycle evehicle custom1 custom2" speed="13.89" length="12.33" shape="355.04,252.43 358.08,251.42 360.56,250.68 363.29,250.29 367.07,250.37"/>
    </edge>
    <edge id=":1500901729_1" function="internal">
        <lane id=":1500901729_1_0" index="0" allow="private emergency authority army vip passenger hov taxi bus coach delivery truck trailer motorcycle evehicle custom1 custom2" speed="13.89" length="12.28" shape="354.96,247.12 358.52,248.26 360.93,249.19 363.39,249.90 367.07,250.37"/>
        <lane id=":1500901729_1_1" index="1" allow="private emergency authority army vip passenger hov taxi bus coach delivery truck trailer motorcycle evehicle custom1 custom2" speed="13.89" length="12.28" shape="355.80,244.04 359.19,245.13 361.48,246.03 363.81,246.72 367.30,247.18"/>
    </edge>
    <edge id=":236725119_0" function="internal">
        <lane id=":236725119_0_0" index="0" disallow="tram rail_urban rail rail_electric rail_fast ship" speed="16.67" length="8.21" shape="331.26,166.93 329.99,168.97 328.80,170.17 327.61,171.37 326.33,173.42"/>
        <lane id=":236725119_0_1" index="1" disallow="tram rail_urban rail rail_electric rail_fast ship" speed="16.67" length="8.21" shape="334.14,168.32 332.87,170.37 331.68,171.57 330.48,172.77 329.21,174.82"/>
        <lane id=":236725119_0_2" index="2" disallow="tram rail_urban rail rail_electric rail_fast ship" speed="16.67" length="8.21" shape="337.02,169.71 335.75,171.76 334.56,172.96 333.36,174.17 332.09,176.22"/>
        <lane id=":236725119_0_3" index="3" disallow="tram rail_urban rail rail_electric rail_fast ship" speed="16.67" length="8.21" shape="337.02,169.71 336.20,171.98 336.00,173.66 335.79,175.35 334.97,177.62"/>
    </edge>
    <edge id=":236726630_0" function="internal">
        <lane id=":236726630_0_0" index="0" allow="private emergency authority army vip passenger hov taxi bus coach delivery truck trailer motorcycle evehicle custom1 custom2" speed="15.28" length="8.87" shape="421.22,55.27 422.73,53.19 424.10,52.04 425.72,51.12 427.94,49.69"/>
    </edge>
    <edge id=":236726630_1" function="internal">
        <lane id=":236726630_1_0" index="0" disallow="tram rail_urban rail rail_electric rail_fast ship" speed="16.67" length="9.73" shape="418.49,53.61 420.23,51.43 421.85,50.30 423.52,49.19 425.37,47.09"/>
        <lane id=":236726630_1_1" index="1" disallow="tram rail_urban rail rail_electric rail_fast ship" speed="16.67" length="9.73" shape="415.75,51.95 417.52,49.73 419.16,48.57 420.84,47.43 422.72,45.29"/>
        <lane id=":236726630_1_2" index="2" disallow="tram rail_urban rail rail_electric rail_fast ship" speed="16.67" length="9.73" shape="413.02,50.29 414.81,48.03 416.47,46.84 418.17,45.67 420.08,43.49"/>
    </edge>
    <edge id=":4600334151_0" function="internal">
        <lane id=":4600334151_0_0" index="0" disallow="tram rail_urban rail rail_electric rail_fast ship" speed="16.67" length="8.21" shape="394.25,96.56 395.70,94.64 397.00,93.55 398.30,92.47 399.76,90.56"/>
        <lane id=":4600334151_0_1" index="1" disallow="tram rail_urban rail rail_electric rail_fast ship" speed="16.67" length="8.21" shape="394.25,96.56 395.28,94.38 395.63,92.72 396.00,91.07 397.03,88.89"/>
        <lane id=":4600334151_0_2" index="2" disallow="tram rail_urban rail rail_electric rail_fast ship" speed="16.67" length="8.21" shape="391.51,94.90 392.54,92.72 392.90,91.07 393.26,89.41 394.29,87.23"/>
        <lane id=":4600334151_0_3" index="3" disallow="tram rail_urban rail rail_electric rail_fast ship" speed="16.67" length="8.21" shape="388.77,93.25 389.80,91.07 390.16,89.41 390.52,87.75 391.56,85.57"/>
    </edge>
    <edge id=":4602629724_0" function="internal">
        <lane id=":4602629724_0_0" index="0" allow="private emergency authority army vip passenger hov taxi bus coach delivery truck trailer motorcycle evehicle custom1 custom2" speed="13.89" length="9.25" shape="470.67,29.98 473.12,30.65 474.76,31.27 476.26,32.18 478.29,33.71"/>
        <lane id=":4602629724_0_1" index="1" allow="private emergency authority army vip passenger hov taxi bus coach delivery truck trailer motorcycle evehicle custom1 custom2" speed="13.89" length="9.25" shape="470.67,29.98 473.60,30.26 475.78,29.93 477.79,29.92 480.24,31.18"/>
    </edge>
    <edge id=":5278399992_0" function="internal">
        <lane id=":5278399992_0_0" index="0" allow="pedestrian delivery bicycle" speed="3.65" length="4.67" shape="669.62,74.58 670.41,75.79 671.21,76.19 672.01,75.79 672.82,74.60"/>
    </edge>
    <edge id=":5599806365_0" function="internal">
        <lane id=":5599806365_0_0" index="0" disallow="tram rail_urban rail rail_electric rail_fast ship" speed="16.67" length="6.83" shape="291.61,255.87 290.53,257.58 289.39,258.52 288.29,259.47 287.35,261.23"/>
        <lane id=":5599806365_0_1" index="1" disallow="tram rail_urban rail rail_electric rail_fast ship" speed="16.67" length="6.83" shape="294.55,257.14 293.50,258.78 292.37,259.66 291.30,260.57 290.38,262.26"/>
    </edge>
    <edge id=":5599806365_2" function="internal">
        <lane id=":5599806365_2_0" index="0" disallow="pedestrian tram rail_urban rail rail_electric rail_fast ship" speed="5.62" length="5.54" shape="297.98,261.12 296.32,261.06 295.01,261.41 294.04,262.15 293.41,263.29"/>
    </edge>
    <edge id=":5599806370_0" function="internal">
        <lane id=":5599806370_0_0" index="0" disallow="tram rail_urban rail rail_electric rail_fast ship" speed="16.67" length="5.75" shape="308.99,268.58 309.39,266.98 309.37,265.81 309.38,264.64 309.83,263.07"/>
        <lane id=":5599806370_0_1" index="1" disallow="tram rail_urban rail rail_electric rail_fast ship" speed="16.67" length="5.75" shape="306.00,267.43 306.41,265.80 306.41,264.60 306.42,263.41 306.90,261.80"/>
        <lane id=":5599806370_0_2" index="2" disallow="tram rail_urban rail rail_electric rail_fast ship" speed="16.67" length="5.75" shape="303.02,266.29 303.44,264.62 303.44,263.39 303.47,262.18 303.96,260.53"/>
    </edge>
    <edge id=":5599806370_3" function="internal">
        <lane id=":5599806370_3_0" index="0" disallow="pedestrian tram rail_urban rail rail_electric rail_fast ship" speed="4.95" length="4.68" shape="300.03,265.14 300.35,263.83 300.22,262.74 299.65,261.89 298.62,261.26"/>
    </edge>
    <edge id=":7432025284_0" function="internal">
        <lane id=":7432025284_0_0" index="0" allow="pedestrian delivery bicycle" speed="3.65" length="4.67" shape="635.25,31.12 633.82,30.90 632.99,31.22 632.74,32.08 633.09,33.48"/>
    </edge>
    <edge id=":cluster_1500901726_1500901727_0" function="internal">
        <lane id=":cluster_1500901726_1500901727_0_0" index="0" disallow="tram rail_urban rail rail_electric rail_fast ship" speed="8.97" length="26.34" shape="303.98,219.46 309.35,210.37 310.61,209.84 307.78,217.87 300.84,234.46"/>
        <lane id=":cluster_1500901726_1500901727_0_1" index="1" disallow="tram rail_urban rail rail_electric rail_fast ship" speed="16.67" length="26.34" shape="306.34,221.85 305.03,225.79 304.95,228.74 304.92,231.72 303.78,235.73"/>
    </edge>
    <edge id=":cluster_1500901726_1500901727_2" function="internal">
        <lane id=":cluster_1500901726_1500901727_2_0" index="0" allow="private emergency authority army vip passenger hov taxi bus coach delivery truck trailer motorcycle evehicle custom1 custom2" speed="9.85" length="12.65" shape="309.21,223.14 307.76,228.54 310.97,232.91 312.42,233.68"/>
        <lane id=":cluster_1500901726_1500901727_2_1" index="1" allow="private emergency authority army vip passenger hov taxi bus coach delivery truck trailer motorcycle evehicle custom1 custom2" speed="8.83" length="7.17" shape="312.15,224.46 311.57,228.16 313.93,230.65"/>
    </edge>
    <edge id=":cluster_1500901726_1500901727_4" function="internal">
        <lane id=":cluster_1500901726_1500901727_4_0" index="0" disallow="tram rail_urban rail rail_electric rail_fast ship" speed="4.98" length="6.71" shape="312.15,224.46 312.66,227.53 313.88,229.03 315.54,228.96"/>
    </edge>
    <edge id=":cluster_1500901726_1500901727_8" function="internal">
        <lane id=":cluster_1500901726_1500901727_8_0" index="0" allow="private emergency authority army vip passenger hov taxi bus coach delivery truck trailer motorcycle evehicle custom1 custom2" speed="9.85" length="15.12" shape="312.42,233.68 317.60,236.43 326.40,239.30"/>
    </edge>
    <edge id=":cluster_1500901726_1500901727_9" function="internal">
        <lane id=":cluster_1500901726_1500901727_9_0" index="0" allow="private emergency authority army vip passenger hov taxi bus coach delivery truck trailer motorcycle evehicle custom1 custom2" speed="8.83" length="14.54" shape="313.93,230.65 314.53,231.29 320.07,233.94 327.25,236.21"/>
    </edge>
    <edge id=":cluster_1500901726_1500901727_10" function="internal">
        <lane id=":cluster_1500901726_1500901727_10_0" index="0" disallow="tram rail_urban rail rail_electric rail_fast ship" speed="4.98" length="3.38" shape="315.54,228.96 315.81,228.95 318.45,227.29"/>
    </edge>
    <edge id=":cluster_1500901726_1500901727_5" function="internal">
        <lane id=":cluster_1500901726_1500901727_5_0" index="0" disallow="tram rail_urban rail rail_electric rail_fast ship" speed="16.67" length="13.50" shape="318.85,242.22 324.29,229.92"/>
        <lane id=":cluster_1500901726_1500901727_5_1" index="1" disallow="tram rail_urban rail rail_electric rail_fast ship" speed="16.67" length="13.50" shape="315.91,240.96 321.37,228.61"/>
        <lane id=":cluster_1500901726_1500901727_5_2" index="2" disallow="tram rail_urban rail rail_electric rail_fast ship" speed="16.67" length="13.50" shape="312.97,239.69 318.45,227.29"/>
    </edge>

    <edge id="-1105373050" from="10115292029" to="10115292030" priority="1" type="highway.service">
        <lane id="-1105373050_0" index="0" allow="pedestrian delivery bicycle" speed="5.56" length="6.45" shape="680.68,61.52 674.50,63.38">
            <param key="origId" value="1105373050"/>
        </lane>
    </edge>
    <edge id="-469646985#0" from="10115292030" to="7432025284" priority="1" type="highway.service">
        <lane id="-469646985#0_0" index="0" allow="pedestrian delivery bicycle" speed="5.56" length="46.83" shape="669.89,62.62 635.25,31.12">
            <param key="origId" value="469646985"/>
        </lane>
    </edge>
    <edge id="-469646985#1" from="5278399992" to="10115292030" priority="1" type="highway.service">
        <lane id="-469646985#1_0" index="0" allow="pedestrian delivery bicycle" speed="5.56" length="4.70" shape="672.82,74.60 672.85,69.90">
            <param key="origId" value="469646985"/>
        </lane>
    </edge>
    <edge id="1105373050" from="10115292030" to="10115292029" priority="1" type="highway.service">
        <lane id="1105373050_0" index="0" allow="pedestrian delivery bicycle" speed="5.56" length="6.45" shape="675.43,66.45 681.60,64.58">
            <param key="origId" value="1105373050"/>
        </lane>
    </edge>
    <edge id="133983834" from="158046116" to="4600357233" name="Kranji Expressway" priority="14" type="highway.motorway" spreadType="center" shape="139.02,242.33 203.65,233.63 232.25,230.96 284.70,226.76 320.38,225.61 381.02,225.44 456.94,227.88 480.73,229.18 510.48,231.24 536.23,233.88 575.52,239.36 621.69,246.54 671.87,254.43 718.22,264.05 751.53,272.10 784.25,282.03">
        <lane id="133983834_0" index="0" allow="private emergency authority army vip passenger hov taxi bus coach delivery truck trailer motorcycle evehicle custom1 custom2" speed="25.00" length="651.38" shape="139.45,245.50 204.01,236.81 232.53,234.15 284.88,229.96 320.44,228.81 380.97,228.64 456.80,231.08 480.53,232.37 510.21,234.43 535.85,237.06 575.05,242.53 621.20,249.70 671.30,257.58 717.52,267.17 750.69,275.19 783.32,285.09">
            <param key="origId" value="133983834 133983828 136807057 1136107295"/>
        </lane>
        <lane id="133983834_1" index="1" allow="private emergency authority army vip passenger hov taxi bus coach delivery truck trailer motorcycle evehicle custom1 custom2" speed="25.00" length="651.38" shape="139.02,242.33 203.65,233.63 232.25,230.96 284.70,226.76 320.38,225.61 381.02,225.44 456.94,227.88 480.73,229.18 510.48,231.24 536.23,233.88 575.52,239.36 621.69,246.54 671.87,254.43 718.22,264.05 751.53,272.10 784.25,282.03">
            <param key="origId" value="133983834 133983828 136807057 1136107295"/>
        </lane>
        <lane id="133983834_2" index="2" allow="private emergency authority army vip passenger hov taxi bus coach delivery truck trailer motorcycle evehicle custom1 custom2" speed="25.00" length="651.38" shape="138.59,239.16 203.29,230.45 231.97,227.77 284.52,223.56 320.32,222.41 381.07,222.24 457.08,224.68 480.93,225.99 510.75,228.05 536.61,230.70 575.99,236.19 622.18,243.38 672.44,251.28 718.92,260.93 752.37,269.01 785.18,278.97">
            <param key="origId" value="133983834 133983828 136807057 1136107295"/>
        </lane>
        <param key="ref" value="KJE"/>
    </edge>
    <edge id="134767269" from="1481210305" to="1481210268" priority="9" type="highway.motorway_link" spreadType="center" shape="417.51,273.60 467.74,280.25 504.49,282.07 522.64,281.42 540.78,279.40 555.62,275.77 569.43,270.78 579.44,265.98 589.12,259.80 596.97,251.84 603.44,243.20 615.35,211.76 618.46,196.84 619.74,182.16 619.10,167.79 616.90,152.39 607.74,127.72 592.01,100.37">
        <lane id="134767269_0" index="0" allow="private emergency authority army vip passenger hov taxi bus coach delivery truck trailer motorcycle evehicle custom1 custom2" speed="13.89" length="323.71" shape="421.26,275.71 467.60,281.84 504.48,283.67 522.76,283.02 541.06,280.98 556.08,277.30 570.05,272.26 580.22,267.38 590.13,261.05 598.19,252.89 604.86,243.98 616.89,212.21 620.05,197.07 621.34,182.19 620.69,167.64 618.46,151.99 609.19,127.04 604.41,118.73">
            <param key="origId" value="134767269"/>
        </lane>
        <lane id="134767269_1" index="1" allow="private emergency authority army vip passenger hov taxi bus coach delivery truck trailer motorcycle evehicle custom1 custom2" speed="13.89" length="323.71" shape="421.68,272.54 467.88,278.66 504.50,280.47 522.52,279.82 540.50,277.82 555.16,274.24 568.81,269.30 578.66,264.58 588.11,258.55 595.75,250.79 602.02,242.42 613.81,211.31 616.87,196.61 618.14,182.13 617.51,167.94 615.34,152.79 606.29,128.40 601.64,120.32">
            <param key="origId" value="134767269"/>
        </lane>
    </edge>
    <edge id="134767273" from="158044158" to="1481210305" name="Kranji Expressway" priority="9" type="highway.motorway_link" spreadType="center" shape="0.00,270.02 52.32,265.99 73.22,262.50 94.14,259.86 113.60,258.33 132.95,257.43 160.46,256.06 188.15,254.86 209.10,254.86 230.16,255.53 258.77,256.87 287.94,258.69 309.93,260.81 332.07,263.60 417.51,273.60">
        <lane id="134767273_0" index="0" allow="private emergency authority army vip passenger hov taxi bus coach delivery truck trailer motorcycle evehicle custom1 custom2" speed="13.89" length="415.23" shape="-0.00,270.02 52.32,265.99 73.22,262.50 94.14,259.86 113.60,258.33 132.95,257.43 160.46,256.06 188.15,254.86 209.10,254.86 230.16,255.53 258.77,256.87 287.94,258.69 309.93,260.81 332.07,263.60 413.54,273.14">
            <param key="origId" value="134767273"/>
        </lane>
    </edge>
    <edge id="136807062" from="1500901721" to="1500901724" priority="9" type="highway.motorway_link" spreadType="center" shape="451.20,195.23 417.68,196.27 368.56,198.40 325.36,200.55 279.34,205.67 252.82,209.49">
        <lane id="136807062_0" index="0" allow="private emergency authority army vip passenger hov taxi bus coach delivery truck trailer motorcycle evehicle custom1 custom2" speed="13.89" length="115.55" shape="447.24,195.35 417.68,196.27 368.56,198.40 331.79,200.23">
            <param key="origId" value="136807062"/>
        </lane>
    </edge>
    <edge id="136807063" from="236727711" to="1500901729" priority="9" type="highway.motorway_link" spreadType="center" shape="289.73,305.43 303.68,287.67 315.12,274.11 322.70,267.07 328.73,263.15 331.21,261.53 341.39,256.62 366.98,248.76">
        <lane id="136807063_0" index="0" allow="private emergency authority army vip passenger hov taxi bus coach delivery truck trailer motorcycle evehicle custom1 custom2" speed="13.89" length="58.49" shape="307.12,283.60 315.12,274.11 322.70,267.07 328.73,263.15 331.21,261.53 341.39,256.62 355.04,252.43">
            <param key="origId" value="136807063"/>
        </lane>
    </edge>
    <edge id="176204638" from="1481210268" to="1474198012" priority="9" type="highway.motorway_link" spreadType="center" shape="592.01,100.37 585.29,93.11 573.65,81.54 552.87,65.36 528.82,48.81 496.42,27.06">
        <lane id="176204638_0" index="0" allow="private emergency authority army vip passenger hov taxi bus coach delivery truck trailer motorcycle evehicle custom1 custom2" speed="13.89" length="125.99" shape="597.85,101.96 587.59,90.89 575.77,79.13 554.76,62.78 530.62,46.16 498.20,24.40">
            <param key="origId" value="176204638"/>
        </lane>
        <lane id="176204638_1" index="1" allow="private emergency authority army vip passenger hov taxi bus coach delivery truck trailer motorcycle evehicle custom1 custom2" speed="13.89" length="125.99" shape="595.50,104.14 585.29,93.11 573.65,81.54 552.87,65.36 528.82,48.81 496.42,27.06">
            <param key="origId" value="176204638"/>
        </lane>
        <lane id="176204638_2" index="2" allow="private emergency authority army vip passenger hov taxi bus coach delivery truck trailer motorcycle evehicle custom1 custom2" speed="13.89" length="125.99" shape="593.15,106.31 582.99,95.33 571.53,83.95 550.98,67.94 527.02,51.46 494.64,29.72">
            <param key="origId" value="176204638"/>
        </lane>
    </edge>
    <edge id="262190480" from="158043238" to="1500901724" name="Kranji Expressway" priority="14" type="highway.motorway" spreadType="center" shape="1200.75,401.26 1157.83,389.71 1084.14,367.17 1024.27,345.43 969.78,324.47 912.38,305.18 876.49,291.78 838.49,279.72 804.11,267.78 767.78,256.96 737.02,249.98 707.70,242.96 684.51,237.95 666.24,234.02 630.84,227.59 582.58,221.24 545.14,216.28 513.38,213.87 482.32,211.47 457.94,209.56 375.30,205.87 346.68,206.27 295.56,207.62 252.82,209.49">
        <lane id="262190480_0" index="0" allow="private emergency authority army vip passenger hov taxi bus coach delivery truck trailer motorcycle evehicle custom1 custom2" speed="25.00" length="896.40" shape="1201.58,398.17 1158.71,386.63 1085.15,364.13 1025.39,342.43 970.86,321.46 913.45,302.16 877.53,288.75 839.50,276.68 805.09,264.73 768.59,253.86 737.75,246.86 708.41,239.84 685.18,234.82 666.86,230.88 631.33,224.43 583.00,218.07 545.47,213.10 513.62,210.68 482.57,208.28 458.14,206.37 375.35,202.67 346.62,203.07 332.09,203.45">
            <param key="origId" value="262190480 136807058 136807059 133983832"/>
        </lane>