<?xml version="1.0" encoding="UTF-8"?>

<!-- generated on 2023-07-18 14:31:18 by Eclipse SUMO netconvert Version 1.17.0
<configuration xmlns:xsi="http://www.w3.org/2001/XMLSchema-instance" xsi:noNamespaceSchemaLocation="http://sumo.dlr.de/xsd/netconvertConfiguration.xsd">

    <input>
        <sumo-net-file value="osm.net.xml.gz"/>
    </input>

    <output>
        <output-file value="osm.net.xml"/>
        <output.street-names value="true"/>
    </output>

    <processing>
        <geometry.min-radius.fix.railways value="false"/>
        <geometry.max-grade.fix value="false"/>
        <offset.disable-normalization value="true"/>
        <lefthand value="1"/>
    </processing>

    <junctions>
        <no-turnarounds value="true"/>
        <junctions.corner-detail value="5"/>
        <junctions.limit-turn-speed value="5.50"/>
        <rectangular-lane-cut value="0"/>
    </junctions>

    <pedestrian>
        <walkingareas value="0"/>
    </pedestrian>

</configuration>
-->

<net version="1.16" junctionCornerDetail="5" lefthand="true" limitTurnSpeed="5.50" xmlns:xsi="http://www.w3.org/2001/XMLSchema-instance" xsi:noNamespaceSchemaLocation="http://sumo.dlr.de/xsd/net_file.xsd">

    <location netOffset="-376749.60,-154441.51" convBoundary="0.00,0.00,1147.49,569.57" origBoundary="103.892121,1.397017,103.902435,1.402169" projParameter="+proj=utm +zone=48 +ellps=WGS84 +datum=WGS84 +units=m +no_defs"/>

    <type id="highway.bridleway" priority="1" numLanes="1" speed="2.78" allow="pedestrian" oneway="1" width="2.00"/>
    <type id="highway.bus_guideway" priority="1" numLanes="1" speed="27.78" allow="bus" oneway="1"/>
    <type id="highway.cycleway" priority="1" numLanes="1" speed="5.56" allow="bicycle" oneway="0" width="1.00"/>
    <type id="highway.footway" priority="1" numLanes="1" speed="2.78" allow="pedestrian" oneway="1" width="2.00"/>
    <type id="highway.ford" priority="1" numLanes="1" speed="2.78" allow="army" oneway="0"/>
    <type id="highway.living_street" priority="2" numLanes="1" speed="2.78" disallow="tram rail_urban rail rail_electric rail_fast ship" oneway="0"/>
    <type id="highway.motorway" priority="14" numLanes="2" speed="39.44" allow="private emergency authority army vip passenger hov taxi bus coach delivery truck trailer motorcycle evehicle custom1 custom2" oneway="1"/>
    <type id="highway.motorway_link" priority="9" numLanes="1" speed="22.22" allow="private emergency authority army vip passenger hov taxi bus coach delivery truck trailer motorcycle evehicle custom1 custom2" oneway="1"/>
    <type id="highway.path" priority="1" numLanes="1" speed="5.56" allow="pedestrian bicycle" oneway="0" width="2.00"/>
    <type id="highway.pedestrian" priority="1" numLanes="1" speed="2.78" allow="pedestrian" oneway="1" width="2.00"/>
    <type id="highway.primary" priority="12" numLanes="2" speed="27.78" disallow="tram rail_urban rail rail_electric rail_fast ship" oneway="0"/>
    <type id="highway.primary_link" priority="7" numLanes="1" speed="22.22" disallow="tram rail_urban rail rail_electric rail_fast ship" oneway="0"/>
    <type id="highway.raceway" priority="15" numLanes="2" speed="83.33" allow="vip" oneway="0"/>
    <type id="highway.residential" priority="3" numLanes="1" speed="13.89" disallow="tram rail_urban rail rail_electric rail_fast ship" oneway="0"/>
    <type id="highway.secondary" priority="11" numLanes="1" speed="27.78" disallow="tram rail_urban rail rail_electric rail_fast ship" oneway="0"/>
    <type id="highway.secondary_link" priority="6" numLanes="1" speed="22.22" disallow="tram rail_urban rail rail_electric rail_fast ship" oneway="0"/>
    <type id="highway.service" priority="1" numLanes="1" speed="5.56" allow="pedestrian delivery bicycle" oneway="0"/>
    <type id="highway.stairs" priority="1" numLanes="1" speed="1.39" allow="pedestrian" oneway="1" width="2.00"/>
    <type id="highway.step" priority="1" numLanes="1" speed="1.39" allow="pedestrian" oneway="1" width="2.00"/>
    <type id="highway.steps" priority="1" numLanes="1" speed="1.39" allow="pedestrian" oneway="1" width="2.00"/>
    <type id="highway.tertiary" priority="10" numLanes="1" speed="22.22" disallow="tram rail_urban rail rail_electric rail_fast ship" oneway="0"/>
    <type id="highway.tertiary_link" priority="5" numLanes="1" speed="22.22" disallow="tram rail_urban rail rail_electric rail_fast ship" oneway="0"/>
    <type id="highway.track" priority="1" numLanes="1" speed="5.56" allow="pedestrian motorcycle moped bicycle" oneway="0"/>
    <type id="highway.trunk" priority="13" numLanes="2" speed="27.78" disallow="pedestrian bicycle tram rail_urban rail rail_electric rail_fast ship" oneway="0"/>
    <type id="highway.trunk_link" priority="8" numLanes="1" speed="22.22" disallow="pedestrian bicycle tram rail_urban rail rail_electric rail_fast ship" oneway="0"/>
    <type id="highway.unclassified" priority="4" numLanes="1" speed="13.89" disallow="tram rail_urban rail rail_electric rail_fast ship" oneway="0"/>
    <type id="highway.unsurfaced" priority="1" numLanes="1" speed="8.33" disallow="tram rail_urban rail rail_electric rail_fast ship" oneway="0"/>
    <type id="railway.highspeed" priority="21" numLanes="1" speed="69.44" allow="rail_fast" oneway="1"/>
    <type id="railway.light_rail" priority="19" numLanes="1" speed="27.78" allow="rail_urban" oneway="1"/>
    <type id="railway.preserved" priority="16" numLanes="1" speed="27.78" allow="rail" oneway="1"/>
    <type id="railway.rail" priority="20" numLanes="1" speed="44.44" allow="rail" oneway="1"/>
    <type id="railway.subway" priority="18" numLanes="1" speed="27.78" allow="rail_urban" oneway="1"/>
    <type id="railway.tram" priority="17" numLanes="1" speed="13.89" allow="tram" oneway="1"/>

    <edge id=":1166755211_0" function="internal">
        <lane id=":1166755211_0_0" index="0" allow="private emergency authority army vip passenger hov taxi bus coach delivery truck trailer motorcycle evehicle custom1 custom2" speed="25.00" length="7.92" shape="306.53,332.68 298.87,334.00"/>
        <lane id=":1166755211_0_1" index="1" allow="private emergency authority army vip passenger hov taxi bus coach delivery truck trailer motorcycle evehicle custom1 custom2" speed="25.00" length="7.92" shape="307.14,335.82 299.34,337.16"/>
        <lane id=":1166755211_0_2" index="2" allow="private emergency authority army vip passenger hov taxi bus coach delivery truck trailer motorcycle evehicle custom1 custom2" speed="25.00" length="7.92" shape="307.76,338.96 299.80,340.33"/>
    </edge>
    <edge id=":135079396_0" function="internal">
        <lane id=":135079396_0_0" index="0" allow="private emergency authority army vip passenger hov taxi bus coach delivery truck trailer motorcycle evehicle custom1 custom2" speed="19.45" length="2.64" shape="519.30,287.46 518.55,287.69 518.03,287.83 517.50,287.94 516.73,288.10"/>
    </edge>
    <edge id=":135079396_1" function="internal">
        <lane id=":135079396_1_0" index="0" allow="private emergency authority army vip passenger hov taxi bus coach delivery truck trailer motorcycle evehicle custom1 custom2" speed="25.00" length="2.92" shape="520.07,290.64 517.35,291.24"/>
        <lane id=":135079396_1_1" index="1" allow="private emergency authority army vip passenger hov taxi bus coach delivery truck trailer motorcycle evehicle custom1 custom2" speed="25.00" length="2.92" shape="520.82,293.75 517.97,294.38"/>
        <lane id=":135079396_1_2" index="2" allow="private emergency authority army vip passenger hov taxi bus coach delivery truck trailer motorcycle evehicle custom1 custom2" speed="25.00" length="2.92" shape="521.57,296.86 518.59,297.52"/>
    </edge>
    <edge id=":1781717313_0" function="internal">
        <lane id=":1781717313_0_0" index="0" allow="private emergency authority army vip passenger hov taxi bus coach delivery truck trailer motorcycle evehicle custom1 custom2" speed="15.28" length="27.39" shape="444.53,417.13 448.96,422.08 452.98,426.22 456.46,431.28 459.27,438.97"/>
        <lane id=":1781717313_0_1" index="1" allow="private emergency authority army vip passenger hov taxi bus coach delivery truck trailer motorcycle evehicle custom1 custom2" speed="15.28" length="27.39" shape="447.06,415.17 451.55,420.21 455.73,424.61 459.40,430.04 462.37,438.18"/>
    </edge>
    <edge id=":1781717313_2" function="internal">
        <lane id=":1781717313_2_0" index="0" disallow="tram rail_urban rail rail_electric rail_fast ship" speed="16.67" length="27.37" shape="451.08,413.05 459.27,438.97"/>
        <lane id=":1781717313_2_1" index="1" disallow="tram rail_urban rail rail_electric rail_fast ship" speed="16.67" length="27.37" shape="454.13,412.08 462.37,438.18"/>
        <lane id=":1781717313_2_2" index="2" disallow="tram rail_urban rail rail_electric rail_fast ship" speed="16.67" length="27.37" shape="457.18,411.11 465.48,437.39"/>
    </edge>
    <edge id=":2083328528_0" function="internal">
        <lane id=":2083328528_0_0" index="0" allow="private emergency authority army vip passenger hov taxi bus coach delivery truck trailer motorcycle evehicle custom1 custom2" speed="12.00" length="12.26" shape="412.51,227.14 409.82,225.66 407.84,224.64 406.34,223.24 405.06,220.63"/>
        <lane id=":2083328528_0_1" index="1" allow="private emergency authority army vip passenger hov taxi bus coach delivery truck trailer motorcycle evehicle custom1 custom2" speed="13.08" length="12.26" shape="410.69,229.78 407.51,227.96 405.24,226.64 403.53,224.87 402.05,221.70"/>
        <lane id=":2083328528_0_2" index="2" allow="private emergency authority army vip passenger hov taxi bus coach delivery truck trailer motorcycle evehicle custom1 custom2" speed="14.09" length="12.26" shape="410.69,229.78 406.77,228.05 403.56,227.31 401.00,226.06 399.03,222.77"/>
    </edge>
    <edge id=":2083328528_3" function="internal">
        <lane id=":2083328528_3_0" index="0" disallow="tram rail_urban rail rail_electric rail_fast ship" speed="16.67" length="11.97" shape="407.51,232.26 406.12,229.03 404.79,226.98 403.47,224.93 402.05,221.70"/>
        <lane id=":2083328528_3_1" index="1" disallow="tram rail_urban rail rail_electric rail_fast ship" speed="16.67" length="11.97" shape="404.51,233.37 403.11,230.13 401.79,228.07 400.45,226.01 399.03,222.77"/>
        <lane id=":2083328528_3_2" index="2" disallow="tram rail_urban rail rail_electric rail_fast ship" speed="16.67" length="11.97" shape="401.51,234.49 400.11,231.23 398.78,229.16 397.44,227.09 396.02,223.84"/>
    </edge>
    <edge id=":2083328532_0" function="internal">
        <lane id=":2083328532_0_0" index="0" allow="private emergency authority army vip passenger hov taxi bus coach delivery truck trailer motorcycle evehicle custom1 custom2" speed="15.28" length="18.60" shape="374.30,211.75 375.86,216.90 375.92,220.64 375.14,224.49 374.14,229.95"/>
        <lane id=":2083328532_0_1" index="1" allow="private emergency authority army vip passenger hov taxi bus coach delivery truck trailer motorcycle evehicle custom1 custom2" speed="15.28" length="20.08" shape="377.28,210.58 378.99,216.13 379.14,220.17 378.37,224.33 377.33,230.23"/>
    </edge>
    <edge id=":2083328532_2" function="internal">
        <lane id=":2083328532_2_0" index="0" disallow="tram rail_urban rail rail_electric rail_fast ship" speed="16.67" length="19.87" shape="377.28,210.58 379.11,216.12 379.87,220.07 380.60,224.03 382.37,229.60"/>
        <lane id=":2083328532_2_1" index="1" disallow="tram rail_urban rail rail_electric rail_fast ship" speed="16.67" length="19.87" shape="380.25,209.40 382.09,214.96 382.86,218.94 383.60,222.92 385.38,228.51"/>
        <lane id=":2083328532_2_2" index="2" disallow="tram rail_urban rail rail_electric rail_fast ship" speed="16.67" length="19.87" shape="383.23,208.22 385.08,213.81 385.85,217.80 386.60,221.80 388.39,227.42"/>
        <lane id=":2083328532_2_3" index="3" disallow="tram rail_urban rail rail_electric rail_fast ship" speed="16.67" length="19.87" shape="386.20,207.04 388.07,212.66 388.84,216.67 389.60,220.68 391.40,226.33"/>
    </edge>
    <edge id=":2083328564_0" function="internal">
        <lane id=":2083328564_0_0" index="0" allow="private emergency authority army vip passenger hov taxi bus coach delivery truck trailer motorcycle evehicle custom1 custom2" speed="13.89" length="8.46" shape="403.24,393.72 405.70,393.69 407.37,394.05 409.01,394.72 411.37,395.60"/>
        <lane id=":2083328564_0_1" index="1" allow="private emergency authority army vip passenger hov taxi bus coach delivery truck trailer motorcycle evehicle custom1 custom2" speed="13.89" length="9.73" shape="402.97,390.53 405.81,390.47 407.74,390.84 409.63,391.56 412.35,392.56"/>
    </edge>
    <edge id=":2083328564_2" function="internal">
        <lane id=":2083328564_2_0" index="0" allow="private emergency authority army vip passenger hov taxi bus coach delivery truck trailer motorcycle evehicle custom1 custom2" speed="13.89" length="10.05" shape="402.70,387.34 405.68,387.48 407.70,388.16 409.72,388.78 412.69,388.79"/>
        <lane id=":2083328564_2_1" index="1" allow="private emergency authority army vip passenger hov taxi bus coach delivery truck trailer motorcycle evehicle custom1 custom2" speed="13.89" length="10.05" shape="402.43,384.15 405.36,384.30 407.36,384.97 409.35,385.61 412.27,385.62"/>
        <lane id=":2083328564_2_2" index="2" allow="private emergency authority army vip passenger hov taxi bus coach delivery truck trailer motorcycle evehicle custom1 custom2" speed="13.89" length="10.05" shape="402.16,380.97 405.05,381.11 407.01,381.79 408.97,382.43 411.84,382.44"/>
    </edge>
    <edge id=":3600770200_0" function="internal">
        <lane id=":3600770200_0_0" index="0" allow="private emergency authority army vip passenger hov taxi bus coach delivery truck trailer motorcycle evehicle custom1 custom2" speed="13.51" length="13.01" shape="503.16,373.08 504.93,369.94 506.06,367.57 507.61,365.74 510.63,364.20"/>
        <lane id=":3600770200_0_1" index="1" allow="private emergency authority army vip passenger hov taxi bus coach delivery truck trailer motorcycle evehicle custom1 custom2" speed="13.89" length="13.01" shape="500.51,371.28 502.63,367.66 504.06,364.98 505.98,362.93 509.55,361.19"/>
    </edge>
    <edge id=":3600770200_2" function="internal">
        <lane id=":3600770200_2_0" index="0" allow="private emergency authority army vip passenger hov taxi bus coach delivery truck trailer motorcycle evehicle custom1 custom2" speed="13.89" length="12.97" shape="498.14,368.03 510.63,364.20"/>
        <lane id=":3600770200_2_1" index="1" allow="private emergency authority army vip passenger hov taxi bus coach delivery truck trailer motorcycle evehicle custom1 custom2" speed="13.89" length="12.97" shape="497.23,364.96 509.55,361.19"/>
    </edge>
    <edge id=":3600774304_0" function="internal">
        <lane id=":3600774304_0_0" index="0" allow="private emergency authority army vip passenger hov taxi bus coach delivery truck trailer motorcycle evehicle custom1 custom2" speed="13.89" length="14.53" shape="351.89,271.87 349.36,275.08 347.72,277.54 345.72,279.40 342.13,280.86"/>
        <lane id=":3600774304_0_1" index="1" allow="private emergency authority army vip passenger hov taxi bus coach delivery truck trailer motorcycle evehicle custom1 custom2" speed="13.89" length="14.53" shape="354.24,274.05 351.34,277.64 349.40,280.32 347.07,282.34 342.97,283.95"/>
    </edge>
    <edge id=":3600774304_2" function="internal">
        <lane id=":3600774304_2_0" index="0" allow="private emergency authority army vip passenger hov taxi bus coach delivery truck trailer motorcycle evehicle custom1 custom2" speed="13.89" length="14.44" shape="356.22,277.45 342.13,280.86"/>
        <lane id=":3600774304_2_1" index="1" allow="private emergency authority army vip passenger hov taxi bus coach delivery truck trailer motorcycle evehicle custom1 custom2" speed="13.89" length="14.44" shape="356.95,280.57 342.97,283.95"/>
    </edge>
    <edge id=":3600774305_0" function="internal">
        <lane id=":3600774305_0_0" index="0" allow="private emergency authority army vip passenger hov taxi bus coach delivery truck trailer motorcycle evehicle custom1 custom2" speed="13.89" length="11.75" shape="463.55,250.01 460.22,250.44 457.91,249.94 455.65,248.82 452.45,247.37"/>
        <lane id=":3600774305_0_1" index="1" allow="private emergency authority army vip passenger hov taxi bus coach delivery truck trailer motorcycle evehicle custom1 custom2" speed="13.89" length="13.44" shape="464.29,253.12 460.47,253.66 457.80,253.22 455.19,252.05 451.51,250.44"/>
    </edge>
    <edge id=":3600774305_2" function="internal">
        <lane id=":3600774305_2_0" index="0" allow="private emergency authority army vip passenger hov taxi bus coach delivery truck trailer motorcycle evehicle custom1 custom2" speed="13.89" length="13.08" shape="464.29,253.12 460.48,253.75 457.82,253.78 455.15,253.80 451.34,254.40"/>
        <lane id=":3600774305_2_1" index="1" allow="private emergency authority army vip passenger hov taxi bus coach delivery truck trailer motorcycle evehicle custom1 custom2" speed="13.89" length="13.08" shape="465.03,256.23 461.22,256.87 458.54,256.90 455.87,256.92 452.05,257.52"/>
        <lane id=":3600774305_2_2" index="2" allow="private emergency authority army vip passenger hov taxi bus coach delivery truck trailer motorcycle evehicle custom1 custom2" speed="13.89" length="13.08" shape="465.77,259.34 461.95,259.98 459.27,260.01 456.59,260.04 452.76,260.64"/>
    </edge>
    <edge id=":3600777293_0" function="internal">
        <lane id=":3600777293_0_0" index="0" allow="private emergency authority army vip passenger hov taxi bus coach delivery truck trailer motorcycle evehicle custom1 custom2" speed="10.51" length="3.70" shape="484.30,417.53 484.10,416.46 484.05,415.70 484.16,414.95 484.42,413.89"/>
        <lane id=":3600777293_0_1" index="1" allow="private emergency authority army vip passenger hov taxi bus coach delivery truck trailer motorcycle evehicle custom1 custom2" speed="12.34" length="5.16" shape="481.15,418.14 480.89,416.64 480.82,415.59 480.96,414.54 481.33,413.06"/>
    </edge>
    <edge id=":3600777293_2" function="internal">
        <lane id=":3600777293_2_0" index="0" disallow="tram rail_urban rail rail_electric rail_fast ship" speed="16.67" length="7.55" shape="478.01,418.75 477.57,416.27 477.26,414.57 476.80,412.91 475.92,410.56"/>
        <lane id=":3600777293_2_1" index="1" disallow="tram rail_urban rail rail_electric rail_fast ship" speed="16.67" length="7.55" shape="474.87,419.36 474.46,417.06 474.18,415.48 473.77,413.94 472.95,411.76"/>
        <lane id=":3600777293_2_2" index="2" disallow="tram rail_urban rail rail_electric rail_fast ship" speed="16.67" length="7.55" shape="471.73,419.97 471.36,417.85 471.11,416.39 470.73,414.97 469.99,412.97"/>
        <lane id=":3600777293_2_3" index="3" disallow="tram rail_urban rail rail_electric rail_fast ship" speed="16.67" length="7.55" shape="468.59,420.57 468.25,418.64 468.03,417.30 467.70,416.00 467.02,414.17"/>
    </edge>
    <edge id=":369177623_0" function="internal">
        <lane id=":369177623_0_0" index="0" allow="private emergency authority army vip passenger hov taxi bus coach delivery truck trailer motorcycle evehicle custom1 custom2" speed="19.45" length="3.19" shape="277.53,362.68 278.46,362.54 279.11,362.46 279.75,362.42 280.70,362.38"/>
    </edge>
    <edge id=":369177623_1" function="internal">
        <lane id=":369177623_1_0" index="0" allow="private emergency authority army vip passenger hov taxi bus coach delivery truck trailer motorcycle evehicle custom1 custom2" speed="25.00" length="3.19" shape="277.04,359.52 280.19,359.03"/>
        <lane id=":369177623_1_1" index="1" allow="private emergency authority army vip passenger hov taxi bus coach delivery truck trailer motorcycle evehicle custom1 custom2" speed="25.00" length="3.19" shape="276.55,356.36 279.70,355.87"/>
        <lane id=":369177623_1_2" index="2" allow="private emergency authority army vip passenger hov taxi bus coach delivery truck trailer motorcycle evehicle custom1 custom2" speed="25.00" length="3.19" shape="276.06,353.20 279.22,352.71"/>
    </edge>
    <edge id=":4702038544_0" function="internal">
        <lane id=":4702038544_0_0" index="0" allow="private emergency authority army vip passenger hov taxi bus coach delivery truck trailer motorcycle evehicle custom1 custom2" speed="13.89" length="8.53" shape="279.68,397.34 282.17,397.83 283.74,398.92 285.31,399.97 287.79,400.37"/>
        <lane id=":4702038544_0_1" index="1" allow="private emergency authority army vip passenger hov taxi bus coach delivery truck trailer motorcycle evehicle custom1 custom2" speed="13.89" length="8.53" shape="279.67,394.14 282.12,394.63 283.67,395.72 285.22,396.77 287.67,397.17"/>
        <lane id=":4702038544_0_2" index="2" allow="private emergency authority army vip passenger hov taxi bus coach delivery truck trailer motorcycle evehicle custom1 custom2" speed="13.89" length="8.53" shape="279.67,394.14 287.54,393.97"/>
        <lane id=":4702038544_0_3" index="3" allow="private emergency authority army vip passenger hov taxi bus coach delivery truck trailer motorcycle evehicle custom1 custom2" speed="13.89" length="8.53" shape="279.67,394.14 282.07,393.63 283.54,392.52 285.02,391.37 287.41,390.78"/>
    </edge>
    <edge id=":5864572443_0" function="internal">
        <lane id=":5864572443_0_0" index="0" allow="private emergency authority army vip passenger hov taxi bus coach delivery truck trailer motorcycle evehicle custom1 custom2" speed="13.89" length="8.19" shape="559.36,230.61 556.95,230.86 555.26,230.67 553.57,230.48 551.17,230.77"/>
        <lane id=":5864572443_0_1" index="1" allow="private emergency authority army vip passenger hov taxi bus coach delivery truck trailer motorcycle evehicle custom1 custom2" speed="13.89" length="8.19" shape="560.02,233.74 557.63,233.99 555.95,233.79 554.27,233.60 551.89,233.89"/>
        <lane id=":5864572443_0_2" index="2" allow="private emergency authority army vip passenger hov taxi bus coach delivery truck trailer motorcycle evehicle custom1 custom2" speed="13.89" length="8.19" shape="560.02,233.74 557.74,234.48 556.30,235.35 554.87,236.24 552.60,237.01"/>
    </edge>
    <edge id=":6096312716_0" function="internal">
        <lane id=":6096312716_0_0" index="0" allow="private emergency authority army vip passenger hov taxi bus coach delivery truck trailer motorcycle evehicle custom1 custom2" speed="13.89" length="0.30" shape="494.52,242.63 494.25,242.70"/>
        <lane id=":6096312716_0_1" index="1" allow="private emergency authority army vip passenger hov taxi bus coach delivery truck trailer motorcycle evehicle custom1 custom2" speed="13.89" length="0.30" shape="495.28,245.74 494.99,245.81"/>
        <lane id=":6096312716_0_2" index="2" allow="private emergency authority army vip passenger hov taxi bus coach delivery truck trailer motorcycle evehicle custom1 custom2" speed="13.89" length="0.30" shape="496.03,248.85 495.74,248.92"/>
        <lane id=":6096312716_0_3" index="3" allow="private emergency authority army vip passenger hov taxi bus coach delivery truck trailer motorcycle evehicle custom1 custom2" speed="13.89" length="0.30" shape="496.79,251.96 496.48,252.03"/>
    </edge>
    <edge id=":6737780770_0" function="internal">
        <lane id=":6737780770_0_0" index="0" disallow="tram rail_urban rail rail_electric rail_fast ship" speed="16.67" length="8.16" shape="488.83,448.83 488.57,446.50 488.78,444.87 489.02,443.23 488.82,440.89"/>
        <lane id=":6737780770_0_1" index="1" disallow="tram rail_urban rail rail_electric rail_fast ship" speed="16.67" length="8.16" shape="488.83,448.83 488.08,446.59 487.21,445.17 486.37,443.75 485.68,441.50"/>
        <lane id=":6737780770_0_2" index="2" disallow="tram rail_urban rail rail_electric rail_fast ship" speed="16.67" length="8.16" shape="485.70,449.52 484.95,447.26 484.08,445.82 483.23,444.38 482.53,442.11"/>
        <lane id=":6737780770_0_3" index="3" disallow="tram rail_urban rail rail_electric rail_fast ship" speed="16.67" length="8.16" shape="482.58,450.21 481.82,447.92 480.95,446.47 480.09,445.01 479.39,442.71"/>
        <lane id=":6737780770_0_4" index="4" disallow="tram rail_urban rail rail_electric rail_fast ship" speed="16.67" length="8.16" shape="479.45,450.90 478.69,448.59 477.81,447.12 476.96,445.64 476.25,443.32"/>
        <lane id=":6737780770_0_5" index="5" disallow="tram rail_urban rail rail_electric rail_fast ship" speed="16.67" length="8.16" shape="476.33,451.59 475.56,449.25 474.68,447.77 473.82,446.28 473.11,443.93"/>
    </edge>
    <edge id=":6745053185_0" function="internal">
        <lane id=":6745053185_0_0" index="0" allow="private emergency authority army vip passenger hov taxi bus coach delivery truck trailer motorcycle evehicle custom1 custom2" speed="13.89" length="8.13" shape="317.53,399.18 319.99,399.33 321.65,399.80 323.32,400.23 325.77,400.27"/>
        <lane id=":6745053185_0_1" index="1" allow="private emergency authority army vip passenger hov taxi bus coach delivery truck trailer motorcycle evehicle custom1 custom2" speed="13.89" length="8.13" shape="317.53,399.18 319.94,398.84 321.52,398.20 323.10,397.54 325.50,397.09"/>
        <lane id=":6745053185_0_2" index="2" allow="private emergency authority army vip passenger hov taxi bus coach delivery truck trailer motorcycle evehicle custom1 custom2" speed="13.89" length="8.13" shape="317.41,395.99 319.77,395.64 321.32,395.01 322.87,394.34 325.23,393.90"/>
        <lane id=":6745053185_0_3" index="3" allow="private emergency authority army vip passenger hov taxi bus coach delivery truck trailer motorcycle evehicle custom1 custom2" speed="13.89" length="8.13" shape="317.28,392.79 319.60,392.44 321.12,391.81 322.64,391.15 324.96,390.71"/>
        <lane id=":6745053185_0_4" index="4" allow="private emergency authority army vip passenger hov taxi bus coach delivery truck trailer motorcycle evehicle custom1 custom2" speed="13.89" length="8.13" shape="317.15,389.59 319.43,389.25 320.92,388.62 322.42,387.96 324.69,387.52"/>
    </edge>
    <edge id=":7281516039_0" function="internal">
        <lane id=":7281516039_0_0" index="0" allow="private emergency authority army vip passenger hov taxi bus coach delivery truck trailer motorcycle evehicle custom1 custom2" speed="13.89" length="8.18" shape="319.85,290.24 317.48,290.62 315.79,290.52 314.11,290.43 311.75,290.86"/>
    </edge>
    <edge id=":7478260198_0" function="internal">
        <lane id=":7478260198_0_0" index="0" allow="private emergency authority army vip passenger hov taxi bus coach delivery truck trailer motorcycle evehicle custom1 custom2" speed="13.89" length="8.19" shape="529.31,235.79 526.90,236.09 525.20,235.92 523.50,235.77 521.10,236.10"/>
        <lane id=":7478260198_0_1" index="1" allow="private emergency authority army vip passenger hov taxi bus coach delivery truck trailer motorcycle evehicle custom1 custom2" speed="13.89" length="8.19" shape="530.02,238.91 527.63,239.20 525.94,239.03 524.25,238.88 521.87,239.21"/>
        <lane id=":7478260198_0_2" index="2" allow="private emergency authority army vip passenger hov taxi bus coach delivery truck trailer motorcycle evehicle custom1 custom2" speed="13.89" length="8.19" shape="530.74,242.03 528.36,242.32 526.68,242.14 525.01,241.99 522.64,242.32"/>
        <lane id=":7478260198_0_3" index="3" allow="private emergency authority army vip passenger hov taxi bus coach delivery truck trailer motorcycle evehicle custom1 custom2" speed="13.89" length="8.19" shape="530.74,242.03 528.48,242.80 527.07,243.70 525.66,244.61 523.41,245.42"/>
    </edge>
    <edge id=":cluster_242998739_3600774306_0" function="internal">
        <lane id=":cluster_242998739_3600774306_0_0" index="0" allow="private emergency authority army vip passenger hov taxi bus coach delivery truck trailer motorcycle evehicle custom1 custom2" speed="13.89" length="35.57" shape="425.71,260.25 391.30,269.19"/>
        <lane id=":cluster_242998739_3600774306_0_1" index="1" allow="private emergency authority army vip passenger hov taxi bus coach delivery truck trailer motorcycle evehicle custom1 custom2" speed="13.89" length="35.57" shape="426.45,263.36 392.01,272.31"/>
    </edge>
    <edge id=":cluster_242998739_3600774306_2" function="internal">
        <lane id=":cluster_242998739_3600774306_2_0" index="0" allow="private emergency authority army vip passenger hov taxi bus coach delivery truck trailer motorcycle evehicle custom1 custom2" speed="10.15" length="24.99" shape="427.18,266.48 417.65,269.18 411.16,272.09 407.70,275.19 407.29,278.49"/>
        <lane id=":cluster_242998739_3600774306_2_1" index="1" allow="private emergency authority army vip passenger hov taxi bus coach delivery truck trailer motorcycle evehicle custom1 custom2" speed="9.53" length="21.87" shape="427.18,266.48 419.01,268.84 413.48,271.47 410.59,274.35 410.33,277.50"/>
    </edge>
    <edge id=":cluster_242998739_3600774306_4" function="internal">
        <lane id=":cluster_242998739_3600774306_4_0" index="0" disallow="tram rail_urban rail rail_electric rail_fast ship" speed="16.67" length="19.52" shape="423.45,273.23 415.52,255.31"/>
        <lane id=":cluster_242998739_3600774306_4_1" index="1" disallow="tram rail_urban rail rail_electric rail_fast ship" speed="16.67" length="19.52" shape="420.40,274.22 412.50,256.36"/>
        <lane id=":cluster_242998739_3600774306_4_2" index="2" disallow="tram rail_urban rail rail_electric rail_fast ship" speed="16.67" length="19.52" shape="417.36,275.21 409.48,257.42"/>
    </edge>