<?xml version="1.0" encoding="UTF-8"?>

<!-- generated on 2023-07-17 10:46:43 by Eclipse SUMO netconvert Version 1.17.0
<configuration xmlns:xsi="http://www.w3.org/2001/XMLSchema-instance" xsi:noNamespaceSchemaLocation="http://sumo.dlr.de/xsd/netconvertConfiguration.xsd">

    <input>
        <sumo-net-file value="osm.net.xml.gz"/>
    </input>

    <output>
        <output-file value="osm.net.xml"/>
        <output.street-names value="true"/>
    </output>

    <processing>
        <geometry.min-radius.fix.railways value="false"/>
        <geometry.max-grade.fix value="false"/>
        <offset.disable-normalization value="true"/>
        <lefthand value="1"/>
    </processing>

    <junctions>
        <no-turnarounds value="true"/>
        <junctions.corner-detail value="5"/>
        <junctions.limit-turn-speed value="5.50"/>
        <rectangular-lane-cut value="0"/>
    </junctions>

    <pedestrian>
        <walkingareas value="0"/>
    </pedestrian>

</configuration>
-->

<net version="1.16" junctionCornerDetail="5" lefthand="true" limitTurnSpeed="5.50" xmlns:xsi="http://www.w3.org/2001/XMLSchema-instance" xsi:noNamespaceSchemaLocation="http://sumo.dlr.de/xsd/net_file.xsd">

    <location netOffset="-370568.17,-140634.66" convBoundary="0.00,0.00,1976.01,425.34" origBoundary="103.836624,1.272108,103.854383,1.275952" projParameter="+proj=utm +zone=48 +ellps=WGS84 +datum=WGS84 +units=m +no_defs"/>

    <type id="highway.bridleway" priority="1" numLanes="1" speed="2.78" allow="pedestrian" oneway="1" width="2.00"/>
    <type id="highway.bus_guideway" priority="1" numLanes="1" speed="27.78" allow="bus" oneway="1"/>
    <type id="highway.cycleway" priority="1" numLanes="1" speed="5.56" allow="bicycle" oneway="0" width="1.00"/>
    <type id="highway.footway" priority="1" numLanes="1" speed="2.78" allow="pedestrian" oneway="1" width="2.00"/>
    <type id="highway.ford" priority="1" numLanes="1" speed="2.78" allow="army" oneway="0"/>
    <type id="highway.living_street" priority="2" numLanes="1" speed="2.78" disallow="tram rail_urban rail rail_electric rail_fast ship" oneway="0"/>
    <type id="highway.motorway" priority="14" numLanes="2" speed="39.44" allow="private emergency authority army vip passenger hov taxi bus coach delivery truck trailer motorcycle evehicle custom1 custom2" oneway="1"/>
    <type id="highway.motorway_link" priority="9" numLanes="1" speed="22.22" allow="private emergency authority army vip passenger hov taxi bus coach delivery truck trailer motorcycle evehicle custom1 custom2" oneway="1"/>
    <type id="highway.path" priority="1" numLanes="1" speed="5.56" allow="pedestrian bicycle" oneway="0" width="2.00"/>
    <type id="highway.pedestrian" priority="1" numLanes="1" speed="2.78" allow="pedestrian" oneway="1" width="2.00"/>
    <type id="highway.primary" priority="12" numLanes="2" speed="27.78" disallow="tram rail_urban rail rail_electric rail_fast ship" oneway="0"/>
    <type id="highway.primary_link" priority="7" numLanes="1" speed="22.22" disallow="tram rail_urban rail rail_electric rail_fast ship" oneway="0"/>
    <type id="highway.raceway" priority="15" numLanes="2" speed="83.33" allow="vip" oneway="0"/>
    <type id="highway.residential" priority="3" numLanes="1" speed="13.89" disallow="tram rail_urban rail rail_electric rail_fast ship" oneway="0"/>
    <type id="highway.secondary" priority="11" numLanes="1" speed="27.78" disallow="tram rail_urban rail rail_electric rail_fast ship" oneway="0"/>
    <type id="highway.secondary_link" priority="6" numLanes="1" speed="22.22" disallow="tram rail_urban rail rail_electric rail_fast ship" oneway="0"/>
    <type id="highway.service" priority="1" numLanes="1" speed="5.56" allow="pedestrian delivery bicycle" oneway="0"/>
    <type id="highway.stairs" priority="1" numLanes="1" speed="1.39" allow="pedestrian" oneway="1" width="2.00"/>
    <type id="highway.step" priority="1" numLanes="1" speed="1.39" allow="pedestrian" oneway="1" width="2.00"/>
    <type id="highway.steps" priority="1" numLanes="1" speed="1.39" allow="pedestrian" oneway="1" width="2.00"/>
    <type id="highway.tertiary" priority="10" numLanes="1" speed="22.22" disallow="tram rail_urban rail rail_electric rail_fast ship" oneway="0"/>
    <type id="highway.tertiary_link" priority="5" numLanes="1" speed="22.22" disallow="tram rail_urban rail rail_electric rail_fast ship" oneway="0"/>
    <type id="highway.track" priority="1" numLanes="1" speed="5.56" allow="pedestrian motorcycle moped bicycle" oneway="0"/>
    <type id="highway.trunk" priority="13" numLanes="2" speed="27.78" disallow="pedestrian bicycle tram rail_urban rail rail_electric rail_fast ship" oneway="0"/>
    <type id="highway.trunk_link" priority="8" numLanes="1" speed="22.22" disallow="pedestrian bicycle tram rail_urban rail rail_electric rail_fast ship" oneway="0"/>
    <type id="highway.unclassified" priority="4" numLanes="1" speed="13.89" disallow="tram rail_urban rail rail_electric rail_fast ship" oneway="0"/>
    <type id="highway.unsurfaced" priority="1" numLanes="1" speed="8.33" disallow="tram rail_urban rail rail_electric rail_fast ship" oneway="0"/>
    <type id="railway.highspeed" priority="21" numLanes="1" speed="69.44" allow="rail_fast" oneway="1"/>
    <type id="railway.light_rail" priority="19" numLanes="1" speed="27.78" allow="rail_urban" oneway="1"/>
    <type id="railway.preserved" priority="16" numLanes="1" speed="27.78" allow="rail" oneway="1"/>
    <type id="railway.rail" priority="20" numLanes="1" speed="44.44" allow="rail" oneway="1"/>
    <type id="railway.subway" priority="18" numLanes="1" speed="27.78" allow="rail_urban" oneway="1"/>
    <type id="railway.tram" priority="17" numLanes="1" speed="13.89" allow="tram" oneway="1"/>

    <edge id=":1145506404_0" function="internal">
        <lane id=":1145506404_0_0" index="0" allow="private emergency authority army vip passenger hov taxi bus coach delivery truck trailer motorcycle evehicle custom1 custom2" speed="18.05" length="3.34" shape="1418.81,131.30 1421.80,132.77"/>
    </edge>
    <edge id=":1145506404_1" function="internal">
        <lane id=":1145506404_1_0" index="0" allow="private emergency authority army vip passenger hov taxi bus coach delivery truck trailer motorcycle evehicle custom1 custom2" speed="22.22" length="2.68" shape="1420.49,128.44 1423.20,129.89"/>
        <lane id=":1145506404_1_1" index="1" allow="private emergency authority army vip passenger hov taxi bus coach delivery truck trailer motorcycle evehicle custom1 custom2" speed="22.22" length="2.68" shape="1422.11,125.68 1424.59,127.01"/>
        <lane id=":1145506404_1_2" index="2" allow="private emergency authority army vip passenger hov taxi bus coach delivery truck trailer motorcycle evehicle custom1 custom2" speed="22.22" length="2.68" shape="1423.74,122.93 1425.99,124.13"/>
        <lane id=":1145506404_1_3" index="3" allow="private emergency authority army vip passenger hov taxi bus coach delivery truck trailer motorcycle evehicle custom1 custom2" speed="22.22" length="2.68" shape="1425.36,120.17 1427.38,121.25"/>
    </edge>
    <edge id=":1318513012_0" function="internal">
        <lane id=":1318513012_0_0" index="0" allow="bus bicycle" speed="13.89" length="8.03" shape="1063.94,366.16 1058.83,359.96"/>
    </edge>
    <edge id=":1318513012_1" function="internal">
        <lane id=":1318513012_1_0" index="0" disallow="pedestrian bicycle tram rail_urban rail rail_electric rail_fast ship" speed="13.89" length="8.64" shape="1048.97,368.12 1050.15,370.33 1050.28,372.21 1050.40,374.09 1051.57,376.30"/>
        <lane id=":1318513012_1_1" index="1" disallow="pedestrian bicycle tram rail_urban rail rail_electric rail_fast ship" speed="13.89" length="8.64" shape="1051.44,366.08 1052.62,368.29 1052.75,370.17 1052.87,372.06 1054.04,374.27"/>
        <lane id=":1318513012_1_2" index="2" disallow="pedestrian bicycle tram rail_urban rail rail_electric rail_fast ship" speed="13.89" length="8.64" shape="1053.90,364.04 1055.09,366.25 1055.22,368.14 1055.34,370.02 1056.52,372.24"/>
        <lane id=":1318513012_1_3" index="3" disallow="pedestrian bicycle tram rail_urban rail rail_electric rail_fast ship" speed="13.89" length="8.64" shape="1056.37,362.00 1057.55,364.21 1057.69,366.10 1057.81,367.99 1058.99,370.21"/>
        <lane id=":1318513012_1_4" index="4" disallow="pedestrian bicycle tram rail_urban rail rail_electric rail_fast ship" speed="13.89" length="8.64" shape="1056.37,362.00 1061.47,368.19"/>
    </edge>
    <edge id=":1363487255_0" function="internal">
        <lane id=":1363487255_0_0" index="0" allow="private emergency authority army vip passenger hov taxi bus coach delivery truck trailer motorcycle evehicle custom1 custom2" speed="18.05" length="5.72" shape="1464.35,107.47 1462.84,106.71 1461.76,106.30 1460.63,106.01 1458.98,105.57"/>
        <lane id=":1363487255_0_1" index="1" allow="private emergency authority army vip passenger hov taxi bus coach delivery truck trailer motorcycle evehicle custom1 custom2" speed="18.05" length="4.99" shape="1462.81,110.28 1461.49,109.61 1460.54,109.27 1459.55,109.02 1458.11,108.65"/>
    </edge>
    <edge id=":1363487255_2" function="internal">
        <lane id=":1363487255_2_0" index="0" allow="private emergency authority army vip passenger hov taxi bus coach delivery truck trailer motorcycle evehicle custom1 custom2" speed="22.22" length="3.60" shape="1461.27,113.08 1457.42,111.09"/>
        <lane id=":1363487255_2_1" index="1" allow="private emergency authority army vip passenger hov taxi bus coach delivery truck trailer motorcycle evehicle custom1 custom2" speed="22.22" length="3.60" shape="1459.72,115.88 1456.53,114.23"/>
        <lane id=":1363487255_2_2" index="2" allow="private emergency authority army vip passenger hov taxi bus coach delivery truck trailer motorcycle evehicle custom1 custom2" speed="22.22" length="3.60" shape="1458.18,118.69 1455.64,117.36"/>
    </edge>
    <edge id=":141882505_0" function="internal">
        <lane id=":141882505_0_0" index="0" allow="private emergency authority army vip passenger hov taxi bus coach delivery truck trailer motorcycle evehicle custom1 custom2" speed="22.22" length="8.16" shape="1347.50,55.55 1345.45,54.23 1344.24,53.02 1343.02,51.83 1340.94,50.57"/>
        <lane id=":141882505_0_1" index="1" allow="private emergency authority army vip passenger hov taxi bus coach delivery truck trailer motorcycle evehicle custom1 custom2" speed="22.22" length="8.16" shape="1346.05,58.40 1344.03,57.10 1342.83,55.90 1341.63,54.71 1339.58,53.47"/>
        <lane id=":141882505_0_2" index="2" allow="private emergency authority army vip passenger hov taxi bus coach delivery truck trailer motorcycle evehicle custom1 custom2" speed="22.22" length="8.16" shape="1344.61,61.26 1342.61,59.97 1341.43,58.77 1340.25,57.60 1338.22,56.37"/>
        <lane id=":141882505_0_3" index="3" allow="private emergency authority army vip passenger hov taxi bus coach delivery truck trailer motorcycle evehicle custom1 custom2" speed="22.22" length="8.16" shape="1344.61,61.26 1342.40,60.43 1340.75,60.22 1339.09,60.04 1336.86,59.26"/>
    </edge>
    <edge id=":1539835288_0" function="internal">
        <lane id=":1539835288_0_0" index="0" disallow="tram rail_urban rail rail_electric rail_fast ship" speed="13.89" length="17.16" shape="1824.61,195.87 1827.17,191.51 1828.26,188.17 1829.21,184.73 1831.31,180.08"/>
        <lane id=":1539835288_0_1" index="1" disallow="tram rail_urban rail rail_electric rail_fast ship" speed="13.89" length="17.16" shape="1822.01,194.02 1824.53,189.70 1825.60,186.38 1826.53,182.97 1828.60,178.37"/>
    </edge>
    <edge id=":1539835288_2" function="internal">
        <lane id=":1539835288_2_0" index="0" allow="private emergency authority army vip passenger hov taxi bus coach delivery truck trailer motorcycle evehicle custom1 custom2" speed="13.89" length="16.62" shape="1819.40,192.17 1822.13,187.60 1823.62,183.75 1824.53,180.28 1825.53,176.85"/>
    </edge>
    <edge id=":1539835341_0" function="internal">
        <lane id=":1539835341_0_0" index="0" allow="private emergency authority army vip passenger hov taxi bus coach delivery truck trailer motorcycle evehicle custom1 custom2" speed="18.05" length="2.50" shape="1818.98,90.84 1816.97,92.15"/>
        <lane id=":1539835341_0_1" index="1" allow="private emergency authority army vip passenger hov taxi bus coach delivery truck trailer motorcycle evehicle custom1 custom2" speed="18.05" length="2.50" shape="1820.80,93.47 1818.63,94.88"/>
    </edge>
    <edge id=":1539835341_2" function="internal">
        <lane id=":1539835341_2_0" index="0" allow="private emergency authority army vip passenger hov taxi bus coach delivery truck trailer motorcycle evehicle custom1 custom2" speed="22.22" length="5.73" shape="1822.63,96.10 1817.76,93.45"/>
        <lane id=":1539835341_2_1" index="1" allow="private emergency authority army vip passenger hov taxi bus coach delivery truck trailer motorcycle evehicle custom1 custom2" speed="22.22" length="5.73" shape="1824.45,98.73 1819.42,96.18"/>
        <lane id=":1539835341_2_2" index="2" allow="private emergency authority army vip passenger hov taxi bus coach delivery truck trailer motorcycle evehicle custom1 custom2" speed="22.22" length="5.73" shape="1826.27,101.36 1821.09,98.92"/>
        <lane id=":1539835341_2_3" index="3" allow="private emergency authority army vip passenger hov taxi bus coach delivery truck trailer motorcycle evehicle custom1 custom2" speed="22.22" length="5.73" shape="1828.10,103.99 1822.76,101.65"/>
        <lane id=":1539835341_2_4" index="4" allow="private emergency authority army vip passenger hov taxi bus coach delivery truck trailer motorcycle evehicle custom1 custom2" speed="22.22" length="5.73" shape="1829.92,106.62 1824.42,104.39"/>
    </edge>
    <edge id=":1539897211_0" function="internal">
        <lane id=":1539897211_0_0" index="0" disallow="tram rail_urban rail rail_electric rail_fast ship" speed="7.55" length="12.90" shape="1447.58,346.46 1445.38,342.56 1444.50,339.35 1444.94,336.83 1446.69,335.00"/>
    </edge>
    <edge id=":1539897211_1" function="internal">
        <lane id=":1539897211_1_0" index="0" disallow="tram rail_urban rail rail_electric rail_fast ship" speed="6.49" length="9.03" shape="1434.51,348.55 1436.73,347.46 1438.77,347.34 1440.62,348.20 1442.28,350.04"/>
    </edge>
    <edge id=":1539897211_2" function="internal">
        <lane id=":1539897211_2_0" index="0" disallow="tram rail_urban rail rail_electric rail_fast ship" speed="13.89" length="17.73" shape="1432.70,345.91 1446.69,335.00"/>
    </edge>
    <edge id=":237154196_0" function="internal">
        <lane id=":237154196_0_0" index="0" disallow="bicycle tram rail_urban rail rail_electric rail_fast ship" speed="16.67" length="18.81" shape="1224.95,318.66 1221.44,314.33 1218.42,311.87 1215.33,309.47 1211.62,305.27"/>
        <lane id=":237154196_0_1" index="1" disallow="bicycle tram rail_urban rail rail_electric rail_fast ship" speed="16.67" length="18.81" shape="1222.29,320.45 1218.80,316.14 1215.80,313.71 1212.72,311.32 1209.04,307.16"/>
        <lane id=":237154196_0_2" index="2" disallow="bicycle tram rail_urban rail rail_electric rail_fast ship" speed="16.67" length="18.81" shape="1219.64,322.23 1216.17,317.96 1213.17,315.55 1210.12,313.18 1206.45,309.04"/>
        <lane id=":237154196_0_3" index="3" disallow="bicycle tram rail_urban rail rail_electric rail_fast ship" speed="16.67" length="18.81" shape="1216.98,324.02 1213.53,319.77 1210.55,317.38 1207.51,315.04 1203.86,310.93"/>
    </edge>
    <edge id=":237154196_4" function="internal">
        <lane id=":237154196_4_0" index="0" disallow="bicycle tram rail_urban rail rail_electric rail_fast ship" speed="9.32" length="3.75" shape="1214.33,325.80 1211.84,323.22 1211.68,323.16"/>
        <lane id=":237154196_4_1" index="1" disallow="bicycle tram rail_urban rail rail_electric rail_fast ship" speed="8.79" length="2.20" shape="1214.33,325.80 1212.59,324.44"/>
    </edge>
    <edge id=":237154196_6" function="internal">
        <lane id=":237154196_6_0" index="0" allow="bus" speed="3.65" length="1.44" shape="1214.33,325.80 1212.99,325.25"/>
    </edge>
    <edge id=":237154196_10" function="internal">
        <lane id=":237154196_10_0" index="0" disallow="bicycle tram rail_urban rail rail_electric rail_fast ship" speed="9.32" length="11.96" shape="1211.68,323.16 1208.64,321.87 1204.73,321.73 1200.12,322.82"/>
    </edge>
    <edge id=":237154196_11" function="internal">
        <lane id=":237154196_11_0" index="0" disallow="bicycle tram rail_urban rail rail_electric rail_fast ship" speed="8.79" length="11.70" shape="1212.59,324.44 1209.82,324.00 1206.01,324.47 1201.15,325.85"/>
    </edge>
    <edge id=":237154196_12" function="internal">
        <lane id=":237154196_12_0" index="0" allow="bus" speed="3.65" length="3.23" shape="1212.99,325.25 1212.11,325.37 1211.67,326.15 1211.67,327.59"/>
    </edge>
    <edge id=":237154196_7" function="internal">
        <lane id=":237154196_7_0" index="0" allow="bus bicycle" speed="5.95" length="9.10" shape="1201.28,312.81 1202.52,315.11 1202.56,317.04 1201.42,318.60 1199.08,319.79"/>
    </edge>
    <edge id=":237154196_8" function="internal">
        <lane id=":237154196_8_0" index="0" allow="bus bicycle" speed="16.67" length="18.06" shape="1201.28,312.81 1211.67,327.59"/>
    </edge>
    <edge id=":237154196_9" function="internal">
        <lane id=":237154196_9_0" index="0" allow="bus" speed="3.65" length="1.44" shape="1201.28,312.81 1202.63,313.31"/>
    </edge>
    <edge id=":237154196_13" function="internal">
        <lane id=":237154196_13_0" index="0" allow="bus" speed="3.65" length="3.23" shape="1202.63,313.31 1203.51,313.16 1203.93,312.37 1203.86,310.93"/>
    </edge>
    <edge id=":237154299_0" function="internal">
        <lane id=":237154299_0_0" index="0" disallow="bicycle tram rail_urban rail rail_electric rail_fast ship" speed="16.67" length="14.26" shape="1061.38,140.74 1059.89,139.36 1058.65,138.64 1057.43,137.91 1056.01,136.47"/>
        <lane id=":237154299_0_1" index="1" disallow="bicycle tram rail_urban rail rail_electric rail_fast ship" speed="16.67" length="14.26" shape="1058.96,142.83 1057.44,141.42 1056.18,140.68 1054.94,139.92 1053.49,138.44"/>
        <lane id=":237154299_0_2" index="2" disallow="bicycle tram rail_urban rail rail_electric rail_fast ship" speed="16.67" length="14.26" shape="1065.93,155.81 1050.97,140.42"/>
        <lane id=":237154299_0_3" index="3" disallow="bicycle tram rail_urban rail rail_electric rail_fast ship" speed="16.67" length="14.26" shape="1063.51,157.90 1048.45,142.39"/>
    </edge>
    <edge id=":237154414_0" function="internal">
        <lane id=":237154414_0_0" index="0" allow="bus" speed="3.65" length="4.67" shape="953.52,235.34 952.14,234.94 951.27,235.15 950.92,235.97 951.08,237.40"/>
    </edge>
    <edge id=":237154438_0" function="internal">
        <lane id=":237154438_0_0" index="0" allow="bus bicycle" speed="5.65" length="9.25" shape="1098.68,399.29 1097.39,401.76 1095.86,402.78 1094.07,402.33 1092.04,400.43"/>
    </edge>
    <edge id=":237154438_1" function="internal">
        <lane id=":237154438_1_0" index="0" allow="bus" speed="3.65" length="1.44" shape="1089.58,402.48 1090.96,402.89"/>
    </edge>
    <edge id=":237154438_2" function="internal">
        <lane id=":237154438_2_0" index="0" allow="bus" speed="3.65" length="3.23" shape="1090.96,402.89 1091.84,402.69 1092.19,401.87 1092.04,400.43"/>
    </edge>
    <edge id=":246806248_0" function="internal">
        <lane id=":246806248_0_0" index="0" disallow="bicycle tram rail_urban rail rail_electric rail_fast ship" speed="16.67" length="13.66" shape="1126.90,214.72 1117.72,204.92"/>
        <lane id=":246806248_0_1" index="1" disallow="bicycle tram rail_urban rail rail_electric rail_fast ship" speed="16.67" length="13.66" shape="1124.58,216.93 1115.33,207.04"/>
        <lane id=":246806248_0_2" index="2" disallow="bicycle tram rail_urban rail rail_electric rail_fast ship" speed="16.67" length="13.66" shape="1122.26,219.13 1112.93,209.16"/>
        <lane id=":246806248_0_3" index="3" disallow="bicycle tram rail_urban rail rail_electric rail_fast ship" speed="16.67" length="13.66" shape="1119.94,221.34 1110.53,211.28"/>
        <lane id=":246806248_0_4" index="4" disallow="bicycle tram rail_urban rail rail_electric rail_fast ship" speed="16.67" length="13.66" shape="1117.62,223.54 1108.13,213.40"/>
    </edge>
    <edge id=":246806248_5" function="internal">
        <lane id=":246806248_5_0" index="0" disallow="bicycle tram rail_urban rail rail_electric rail_fast ship" speed="10.60" length="14.97" shape="1112.75,224.88 1115.56,218.98 1116.93,214.04 1116.85,210.06 1115.33,207.04"/>
        <lane id=":246806248_5_1" index="1" disallow="bicycle tram rail_urban rail rail_electric rail_fast ship" speed="9.19" length="14.97" shape="1109.49,224.06 1112.66,219.43 1114.29,215.40 1114.38,211.98 1112.93,209.16"/>
        <lane id=":246806248_5_2" index="2" disallow="bicycle tram rail_urban rail rail_electric rail_fast ship" speed="8.34" length="14.97" shape="1106.09,223.20 1109.03,219.11 1110.75,215.77 1111.25,213.16 1110.53,211.28"/>
        <lane id=":246806248_5_3" index="3" disallow="bicycle tram rail_urban rail rail_electric rail_fast ship" speed="7.55" length="14.97" shape="1106.09,223.20 1108.12,220.20 1109.14,217.57 1109.14,215.30 1108.13,213.40"/>
    </edge>
    <edge id=":2598074281_0" function="internal">
        <lane id=":2598074281_0_0" index="0" allow="private emergency authority army vip passenger hov taxi bus coach delivery truck trailer motorcycle evehicle custom1 custom2" speed="13.89" length="8.12" shape="1516.54,243.20 1515.31,245.19 1514.14,246.35 1512.93,247.49 1511.61,249.44"/>
        <lane id=":2598074281_0_1" index="1" allow="private emergency authority army vip passenger hov taxi bus coach delivery truck trailer motorcycle evehicle custom1 custom2" speed="13.89" length="8.12" shape="1519.43,244.57 1518.18,246.60 1516.99,247.78 1515.77,248.95 1514.44,250.94"/>
        <lane id=":2598074281_0_2" index="2" allow="private emergency authority army vip passenger hov taxi bus coach delivery truck trailer motorcycle evehicle custom1 custom2" speed="13.89" length="8.12" shape="1519.43,244.57 1518.62,246.85 1518.41,248.54 1518.16,250.21 1517.26,252.44"/>
    </edge>
    <edge id=":2943608445_0" function="internal">
        <lane id=":2943608445_0_0" index="0" disallow="bicycle tram rail_urban rail rail_electric rail_fast ship" speed="16.67" length="8.35" shape="1203.87,294.75 1202.75,292.40 1202.63,290.45 1202.46,288.55 1201.17,286.34"/>
        <lane id=":2943608445_0_1" index="1" disallow="bicycle tram rail_urban rail rail_electric rail_fast ship" speed="16.67" length="8.35" shape="1201.29,296.65 1200.23,294.36 1200.15,292.46 1200.01,290.61 1198.77,288.46"/>
        <lane id=":2943608445_0_2" index="2" disallow="bicycle tram rail_urban rail rail_electric rail_fast ship" speed="16.67" length="8.35" shape="1198.71,298.55 1197.70,296.33 1197.66,294.48 1197.56,292.67 1196.38,290.58"/>
        <lane id=":2943608445_0_3" index="3" disallow="bicycle tram rail_urban rail rail_electric rail_fast ship" speed="16.67" length="8.35" shape="1196.14,300.44 1195.17,298.29 1195.17,296.49 1195.11,294.73 1193.99,292.71"/>
        <lane id=":2943608445_0_4" index="4" disallow="bicycle tram rail_urban rail rail_electric rail_fast ship" speed="16.67" length="8.35" shape="1196.14,300.44 1194.86,298.72 1193.96,297.56 1193.01,296.44 1191.59,294.83"/>
    </edge>
    <edge id=":2943608445_5" function="internal">
        <lane id=":2943608445_5_0" index="0" allow="bus bicycle" speed="16.67" length="6.94" shape="1189.20,296.95 1190.56,298.50 1191.47,299.57 1192.34,300.69 1193.56,302.34"/>
    </edge>
    <edge id=":3667973340_0" function="internal">
        <lane id=":3667973340_0_0" index="0" allow="private emergency authority army vip passenger hov taxi bus coach delivery truck trailer motorcycle evehicle custom1 custom2" speed="13.89" length="8.15" shape="1087.36,22.89 1084.94,23.07 1083.26,22.83 1081.57,22.62 1079.17,22.88"/>
        <lane id=":3667973340_0_1" index="1" allow="private emergency authority army vip passenger hov taxi bus coach delivery truck trailer motorcycle evehicle custom1 custom2" speed="13.89" length="8.15" shape="1087.92,26.04 1085.54,26.22 1083.87,25.97 1082.22,25.75 1079.85,26.00"/>
        <lane id=":3667973340_0_2" index="2" allow="private emergency authority army vip passenger hov taxi bus coach delivery truck trailer motorcycle evehicle custom1 custom2" speed="13.89" length="8.15" shape="1087.92,26.04 1085.65,26.71 1084.21,27.54 1082.77,28.39 1080.52,29.13"/>
    </edge>
    <edge id=":4602135005_0" function="internal">
        <lane id=":4602135005_0_0" index="0" allow="private emergency authority army vip passenger hov taxi bus coach delivery truck trailer motorcycle evehicle custom1 custom2" speed="13.89" length="16.24" shape="1057.99,70.45 1060.96,68.48 1064.03,66.82 1067.82,65.53 1072.94,64.67"/>
    </edge>
    <edge id=":4602135005_1" function="internal">
        <lane id=":4602135005_1_0" index="0" allow="private emergency authority army vip passenger hov taxi bus coach delivery truck trailer motorcycle evehicle custom1 custom2" speed="13.89" length="16.20" shape="1056.74,65.98 1072.94,64.67"/>
        <lane id=":4602135005_1_1" index="1" allow="private emergency authority army vip passenger hov taxi bus coach delivery truck trailer motorcycle evehicle custom1 custom2" speed="13.89" length="16.20" shape="1056.50,62.79 1072.60,61.49"/>
    </edge>
    <edge id=":4602135016_0" function="internal">
        <lane id=":4602135016_0_0" index="0" allow="private emergency authority army vip passenger hov taxi bus coach delivery truck trailer motorcycle evehicle custom1 custom2" speed="8.91" length="9.51" shape="1038.49,112.98 1037.08,110.72 1036.27,108.48 1036.07,106.26 1036.47,104.06"/>
    </edge>
    <edge id=":4602135016_1" function="internal">
        <lane id=":4602135016_1_0" index="0" disallow="bicycle tram rail_urban rail rail_electric rail_fast ship" speed="16.67" length="10.05" shape="1038.49,112.98 1031.73,105.05"/>
        <lane id=":4602135016_1_1" index="1" disallow="bicycle tram rail_urban rail rail_electric rail_fast ship" speed="16.67" length="10.05" shape="1035.94,114.91 1029.34,107.17"/>
        <lane id=":4602135016_1_2" index="2" disallow="bicycle tram rail_urban rail rail_electric rail_fast ship" speed="16.67" length="10.05" shape="1033.39,116.84 1026.94,109.29"/>
        <lane id=":4602135016_1_3" index="3" disallow="bicycle tram rail_urban rail rail_electric rail_fast ship" speed="16.67" length="10.05" shape="1030.83,118.77 1024.54,111.41"/>
    </edge>
    <edge id=":4602135017_0" function="internal">
        <lane id=":4602135017_0_0" index="0" allow="private emergency authority army vip passenger hov taxi bus coach delivery truck trailer motorcycle evehicle custom1 custom2" speed="13.89" length="7.98" shape="1328.43,84.94 1330.48,86.05 1331.69,87.16 1332.87,88.32 1334.85,89.58"/>
    </edge>
    <edge id=":4602143859_0" function="internal">
        <lane id=":4602143859_0_0" index="0" allow="private emergency authority army vip passenger hov taxi bus coach delivery truck trailer motorcycle evehicle custom1 custom2" speed="13.89" length="0.30" shape="1429.24,326.87 1428.99,327.01"/>
        <lane id=":4602143859_0_1" index="1" allow="private emergency authority army vip passenger hov taxi bus coach delivery truck trailer motorcycle evehicle custom1 custom2" speed="13.89" length="0.30" shape="1430.87,329.62 1430.61,329.78"/>
        <lane id=":4602143859_0_2" index="2" allow="private emergency authority army vip passenger hov taxi bus coach delivery truck trailer motorcycle evehicle custom1 custom2" speed="13.89" length="0.30" shape="1432.50,332.38 1432.23,332.54"/>
    </edge>
    <edge id=":4724923624_0" function="internal">
        <lane id=":4724923624_0_0" index="0" allow="bus" speed="3.65" length="4.67" shape="1278.01,426.27 1279.36,426.78 1280.24,426.64 1280.66,425.85 1280.61,424.41"/>
    </edge>
    <edge id=":5282470409_0" function="internal">
        <lane id=":5282470409_0_0" index="0" disallow="tram rail_urban rail rail_electric rail_fast ship" speed="3.65" length="4.67" shape="1476.92,402.17 1478.25,402.73 1479.13,402.62 1479.58,401.85 1479.58,400.41"/>
    </edge>
    <edge id=":5282930777_0" function="internal">
        <lane id=":5282930777_0_0" index="0" disallow="tram rail_urban rail rail_electric rail_fast ship" speed="13.89" length="5.12" shape="1047.88,149.52 1046.56,150.18 1045.47,150.28 1044.39,150.39 1043.08,151.06"/>
        <lane id=":5282930777_0_1" index="1" disallow="tram rail_urban rail rail_electric rail_fast ship" speed="13.89" length="5.12" shape="1049.80,152.09 1048.48,152.74 1047.40,152.84 1046.32,152.94 1045.01,153.61"/>
    </edge>
    <edge id=":5282930777_2" function="internal">
        <lane id=":5282930777_2_0" index="0" disallow="pedestrian bicycle tram rail_urban rail rail_electric rail_fast ship" speed="11.81" length="4.62" shape="1050.37,154.69 1045.01,153.61"/>
        <lane id=":5282930777_2_1" index="1" disallow="pedestrian bicycle tram rail_urban rail rail_electric rail_fast ship" speed="9.90" length="4.62" shape="1050.37,154.69 1049.27,154.89 1048.53,155.11 1047.85,155.49 1046.95,156.15"/>
    </edge>
    <edge id=":5282930784_0" function="internal">
        <lane id=":5282930784_0_0" index="0" disallow="bicycle tram rail_urban rail rail_electric rail_fast ship" speed="16.67" length="11.86" shape="1068.98,149.98 1061.45,140.82"/>