<?xml version="1.0" encoding="UTF-8"?>

<!-- generated on 2023-07-17 13:54:09 by Eclipse SUMO netconvert Version 1.17.0
<configuration xmlns:xsi="http://www.w3.org/2001/XMLSchema-instance" xsi:noNamespaceSchemaLocation="http://sumo.dlr.de/xsd/netconvertConfiguration.xsd">

    <input>
        <sumo-net-file value="osm.net.xml.gz"/>
    </input>

    <output>
        <output-file value="osm.net.xml"/>
        <output.street-names value="true"/>
    </output>

    <processing>
        <geometry.min-radius.fix.railways value="false"/>
        <geometry.max-grade.fix value="false"/>
        <offset.disable-normalization value="true"/>
        <lefthand value="0"/>
    </processing>

    <junctions>
        <no-turnarounds value="true"/>
        <junctions.corner-detail value="5"/>
        <junctions.limit-turn-speed value="5.50"/>
        <rectangular-lane-cut value="0"/>
    </junctions>

    <pedestrian>
        <walkingareas value="0"/>
    </pedestrian>

</configuration>
-->

<net version="1.16" junctionCornerDetail="5" limitTurnSpeed="5.50" xmlns:xsi="http://www.w3.org/2001/XMLSchema-instance" xsi:noNamespaceSchemaLocation="http://sumo.dlr.de/xsd/net_file.xsd">

    <location netOffset="-372072.77,-145575.89" convBoundary="0.00,0.00,780.19,652.23" origBoundary="103.850125,1.316803,103.857135,1.322704" projParameter="+proj=utm +zone=48 +ellps=WGS84 +datum=WGS84 +units=m +no_defs"/>

    <type id="highway.bridleway" priority="1" numLanes="1" speed="2.78" allow="pedestrian" oneway="1" width="2.00"/>
    <type id="highway.bus_guideway" priority="1" numLanes="1" speed="27.78" allow="bus" oneway="1"/>
    <type id="highway.cycleway" priority="1" numLanes="1" speed="5.56" allow="bicycle" oneway="0" width="1.00"/>
    <type id="highway.footway" priority="1" numLanes="1" speed="2.78" allow="pedestrian" oneway="1" width="2.00"/>
    <type id="highway.ford" priority="1" numLanes="1" speed="2.78" allow="army" oneway="0"/>
    <type id="highway.living_street" priority="2" numLanes="1" speed="2.78" disallow="tram rail_urban rail rail_electric rail_fast ship" oneway="0"/>
    <type id="highway.motorway" priority="14" numLanes="2" speed="39.44" allow="private emergency authority army vip passenger hov taxi bus coach delivery truck trailer motorcycle evehicle custom1 custom2" oneway="1"/>
    <type id="highway.motorway_link" priority="9" numLanes="1" speed="22.22" allow="private emergency authority army vip passenger hov taxi bus coach delivery truck trailer motorcycle evehicle custom1 custom2" oneway="1"/>
    <type id="highway.path" priority="1" numLanes="1" speed="5.56" allow="pedestrian bicycle" oneway="0" width="2.00"/>
    <type id="highway.pedestrian" priority="1" numLanes="1" speed="2.78" allow="pedestrian" oneway="1" width="2.00"/>
    <type id="highway.primary" priority="12" numLanes="2" speed="27.78" disallow="tram rail_urban rail rail_electric rail_fast ship" oneway="0"/>
    <type id="highway.primary_link" priority="7" numLanes="1" speed="22.22" disallow="tram rail_urban rail rail_electric rail_fast ship" oneway="0"/>
    <type id="highway.raceway" priority="15" numLanes="2" speed="83.33" allow="vip" oneway="0"/>
    <type id="highway.residential" priority="3" numLanes="1" speed="13.89" disallow="tram rail_urban rail rail_electric rail_fast ship" oneway="0"/>
    <type id="highway.secondary" priority="11" numLanes="1" speed="27.78" disallow="tram rail_urban rail rail_electric rail_fast ship" oneway="0"/>
    <type id="highway.secondary_link" priority="6" numLanes="1" speed="22.22" disallow="tram rail_urban rail rail_electric rail_fast ship" oneway="0"/>
    <type id="highway.service" priority="1" numLanes="1" speed="5.56" allow="pedestrian delivery bicycle" oneway="0"/>
    <type id="highway.stairs" priority="1" numLanes="1" speed="1.39" allow="pedestrian" oneway="1" width="2.00"/>
    <type id="highway.step" priority="1" numLanes="1" speed="1.39" allow="pedestrian" oneway="1" width="2.00"/>
    <type id="highway.steps" priority="1" numLanes="1" speed="1.39" allow="pedestrian" oneway="1" width="2.00"/>
    <type id="highway.tertiary" priority="10" numLanes="1" speed="22.22" disallow="tram rail_urban rail rail_electric rail_fast ship" oneway="0"/>
    <type id="highway.tertiary_link" priority="5" numLanes="1" speed="22.22" disallow="tram rail_urban rail rail_electric rail_fast ship" oneway="0"/>
    <type id="highway.track" priority="1" numLanes="1" speed="5.56" allow="pedestrian motorcycle moped bicycle" oneway="0"/>
    <type id="highway.trunk" priority="13" numLanes="2" speed="27.78" disallow="pedestrian bicycle tram rail_urban rail rail_electric rail_fast ship" oneway="0"/>
    <type id="highway.trunk_link" priority="8" numLanes="1" speed="22.22" disallow="pedestrian bicycle tram rail_urban rail rail_electric rail_fast ship" oneway="0"/>
    <type id="highway.unclassified" priority="4" numLanes="1" speed="13.89" disallow="tram rail_urban rail rail_electric rail_fast ship" oneway="0"/>
    <type id="highway.unsurfaced" priority="1" numLanes="1" speed="8.33" disallow="tram rail_urban rail rail_electric rail_fast ship" oneway="0"/>
    <type id="railway.highspeed" priority="21" numLanes="1" speed="69.44" allow="rail_fast" oneway="1"/>
    <type id="railway.light_rail" priority="19" numLanes="1" speed="27.78" allow="rail_urban" oneway="1"/>
    <type id="railway.preserved" priority="16" numLanes="1" speed="27.78" allow="rail" oneway="1"/>
    <type id="railway.rail" priority="20" numLanes="1" speed="44.44" allow="rail" oneway="1"/>
    <type id="railway.subway" priority="18" numLanes="1" speed="27.78" allow="rail_urban" oneway="1"/>
    <type id="railway.tram" priority="17" numLanes="1" speed="13.89" allow="tram" oneway="1"/>

    <edge id=":1396114315_0" function="internal">
        <lane id=":1396114315_0_0" index="0" disallow="tram rail_urban rail rail_electric rail_fast ship" speed="13.89" length="6.91" shape="326.00,383.70 326.45,381.73 327.13,380.46 327.81,379.19 328.24,377.22"/>
        <lane id=":1396114315_0_1" index="1" disallow="tram rail_urban rail rail_electric rail_fast ship" speed="13.89" length="6.91" shape="329.19,384.01 329.63,382.04 330.32,380.77 330.99,379.50 331.43,377.53"/>
        <lane id=":1396114315_0_2" index="2" disallow="tram rail_urban rail rail_electric rail_fast ship" speed="13.89" length="6.91" shape="332.38,384.31 332.82,382.34 333.50,381.08 334.18,379.82 334.61,377.85"/>
    </edge>
    <edge id=":1396114315_3" function="internal">
        <lane id=":1396114315_3_0" index="0" allow="private emergency authority army vip passenger hov taxi bus coach delivery truck trailer motorcycle evehicle custom1 custom2" speed="11.49" length="6.17" shape="335.56,384.62 335.85,382.85 336.35,381.71 337.12,380.67 338.24,379.22"/>
    </edge>
    <edge id=":1791625508_0" function="internal">
        <lane id=":1791625508_0_0" index="0" allow="private emergency authority army vip passenger hov taxi bus coach delivery truck trailer motorcycle evehicle custom1 custom2" speed="25.00" length="3.55" shape="374.68,296.08 371.90,294.45"/>
        <lane id=":1791625508_0_1" index="1" allow="private emergency authority army vip passenger hov taxi bus coach delivery truck trailer motorcycle evehicle custom1 custom2" speed="25.00" length="3.55" shape="376.39,293.38 373.42,291.64"/>
        <lane id=":1791625508_0_2" index="2" allow="private emergency authority army vip passenger hov taxi bus coach delivery truck trailer motorcycle evehicle custom1 custom2" speed="25.00" length="3.55" shape="378.09,290.67 374.94,288.82"/>
        <lane id=":1791625508_0_3" index="3" allow="private emergency authority army vip passenger hov taxi bus coach delivery truck trailer motorcycle evehicle custom1 custom2" speed="25.00" length="3.55" shape="379.80,287.96 376.46,286.01"/>
    </edge>
    <edge id=":1791625508_4" function="internal">
        <lane id=":1791625508_4_0" index="0" allow="private emergency authority army vip passenger hov taxi bus coach delivery truck trailer motorcycle evehicle custom1 custom2" speed="11.68" length="3.64" shape="381.51,285.26 380.60,284.67 380.02,284.21 379.54,283.64 378.93,282.76"/>
    </edge>
    <edge id=":1791625510_0" function="internal">
        <lane id=":1791625510_0_0" index="0" allow="private emergency authority army vip passenger hov taxi bus coach delivery truck trailer motorcycle evehicle custom1 custom2" speed="25.00" length="10.14" shape="412.96,310.94 409.99,310.41 407.58,312.09 405.14,313.81 402.11,313.38"/>
        <lane id=":1791625510_0_1" index="1" allow="private emergency authority army vip passenger hov taxi bus coach delivery truck trailer motorcycle evehicle custom1 custom2" speed="25.00" length="10.14" shape="412.96,310.94 410.48,310.15 408.42,310.75 406.35,311.38 403.82,310.67"/>
        <lane id=":1791625510_0_2" index="2" allow="private emergency authority army vip passenger hov taxi bus coach delivery truck trailer motorcycle evehicle custom1 custom2" speed="25.00" length="10.14" shape="414.76,308.29 412.26,307.49 410.18,308.08 408.08,308.69 405.52,307.96"/>
        <lane id=":1791625510_0_3" index="3" allow="private emergency authority army vip passenger hov taxi bus coach delivery truck trailer motorcycle evehicle custom1 custom2" speed="25.00" length="10.14" shape="416.56,305.65 414.03,304.83 411.93,305.40 409.81,306.00 407.23,305.26"/>
        <lane id=":1791625510_0_4" index="4" allow="private emergency authority army vip passenger hov taxi bus coach delivery truck trailer motorcycle evehicle custom1 custom2" speed="25.00" length="10.14" shape="418.37,303.01 415.81,302.17 413.69,302.73 411.55,303.31 408.94,302.55"/>
    </edge>
    <edge id=":1791653959_0" function="internal">
        <lane id=":1791653959_0_0" index="0" disallow="tram rail_urban rail rail_electric rail_fast ship" speed="16.67" length="6.52" shape="483.90,220.22 482.17,221.01 480.83,221.20 479.48,221.40 477.75,222.19"/>
        <lane id=":1791653959_0_1" index="1" disallow="tram rail_urban rail rail_electric rail_fast ship" speed="16.67" length="6.52" shape="482.19,217.51 480.47,218.30 479.12,218.50 477.78,218.69 476.05,219.48"/>
        <lane id=":1791653959_0_2" index="2" disallow="tram rail_urban rail rail_electric rail_fast ship" speed="16.67" length="6.52" shape="480.48,214.81 478.76,215.60 477.41,215.79 476.07,215.98 474.34,216.77"/>
    </edge>
    <edge id=":1791653959_3" function="internal">
        <lane id=":1791653959_3_0" index="0" allow="private emergency authority army vip passenger hov taxi bus coach delivery truck trailer motorcycle evehicle custom1 custom2" speed="8.85" length="5.63" shape="478.77,212.10 477.34,212.88 476.23,213.14 475.04,213.07 473.38,212.85"/>
    </edge>
    <edge id=":1791653961_0" function="internal">
        <lane id=":1791653961_0_0" index="0" allow="private emergency authority army vip passenger hov taxi bus coach delivery truck trailer motorcycle evehicle custom1 custom2" speed="13.89" length="9.30" shape="440.53,209.91 435.16,202.26"/>
        <lane id=":1791653961_0_1" index="1" allow="private emergency authority army vip passenger hov taxi bus coach delivery truck trailer motorcycle evehicle custom1 custom2" speed="13.89" length="9.30" shape="443.15,208.07 437.82,200.50"/>
    </edge>
    <edge id=":1791653961_2" function="internal">
        <lane id=":1791653961_2_0" index="0" allow="private emergency authority army vip passenger hov taxi bus coach delivery truck trailer motorcycle evehicle custom1 custom2" speed="12.92" length="9.28" shape="445.62,205.05 443.00,204.11 441.10,203.51 439.51,202.54 437.82,200.50"/>
    </edge>
    <edge id=":1791654001_0" function="internal">
        <lane id=":1791654001_0_0" index="0" disallow="tram rail_urban rail rail_electric rail_fast ship" speed="16.67" length="7.28" shape="197.85,272.04 195.93,272.15 194.65,272.65 193.37,273.24 191.45,273.62"/>
        <lane id=":1791654001_0_1" index="1" disallow="tram rail_urban rail rail_electric rail_fast ship" speed="16.67" length="7.28" shape="198.09,268.85 196.03,268.95 194.66,269.45 193.28,270.04 191.22,270.43"/>
        <lane id=":1791654001_0_2" index="2" disallow="tram rail_urban rail rail_electric rail_fast ship" speed="16.67" length="7.28" shape="198.32,265.65 196.13,265.75 194.66,266.25 193.20,266.84 191.00,267.24"/>
        <lane id=":1791654001_0_3" index="3" disallow="tram rail_urban rail rail_electric rail_fast ship" speed="16.67" length="7.28" shape="198.32,265.65 196.06,265.25 194.55,264.64 193.04,264.14 190.78,264.04"/>
    </edge>
    <edge id=":1791656842_0" function="internal">
        <lane id=":1791656842_0_0" index="0" allow="private emergency authority army vip passenger hov taxi bus coach delivery truck trailer motorcycle evehicle custom1 custom2" speed="13.89" length="8.08" shape="224.28,246.71 226.60,247.23 228.28,247.23 229.94,247.26 232.23,247.87"/>
    </edge>
    <edge id=":1791656844_0" function="internal">
        <lane id=":1791656844_0_0" index="0" allow="private emergency authority army vip passenger hov taxi bus coach delivery truck trailer motorcycle evehicle custom1 custom2" speed="13.89" length="13.09" shape="122.32,244.84 124.81,241.67 126.35,239.31 128.12,237.22 131.29,234.87"/>
        <lane id=":1791656844_0_1" index="1" allow="private emergency authority army vip passenger hov taxi bus coach delivery truck trailer motorcycle evehicle custom1 custom2" speed="13.89" length="13.09" shape="124.71,246.97 127.02,244.00 128.43,241.77 130.05,239.79 132.99,237.57"/>
    </edge>
    <edge id=":1791656844_2" function="internal">
        <lane id=":1791656844_2_0" index="0" allow="private emergency authority army vip passenger hov taxi bus coach delivery truck trailer motorcycle evehicle custom1 custom2" speed="10.53" length="12.65" shape="128.32,248.93 128.93,244.86 129.92,241.61 131.27,239.18 132.99,237.57"/>
    </edge>
    <edge id=":1791656851_0" function="internal">
        <lane id=":1791656851_0_0" index="0" disallow="tram rail_urban rail rail_electric rail_fast ship" speed="16.67" length="4.26" shape="143.16,275.98 139.18,276.36"/>
        <lane id=":1791656851_0_1" index="1" disallow="tram rail_urban rail rail_electric rail_fast ship" speed="16.67" length="4.26" shape="143.02,272.78 138.78,273.19"/>
        <lane id=":1791656851_0_2" index="2" disallow="tram rail_urban rail rail_electric rail_fast ship" speed="16.67" length="4.26" shape="142.88,269.59 138.37,270.01"/>
    </edge>
    <edge id=":1791656851_3" function="internal">
        <lane id=":1791656851_3_0" index="0" allow="private emergency authority army vip passenger hov taxi bus coach delivery truck trailer motorcycle evehicle custom1 custom2" speed="8.53" length="4.52" shape="142.74,266.39 141.39,266.51 140.43,266.57 139.54,266.40 138.40,265.78"/>
    </edge>
    <edge id=":1791656852_0" function="internal">
        <lane id=":1791656852_0_0" index="0" allow="private emergency authority army vip passenger hov taxi bus coach delivery truck trailer motorcycle evehicle custom1 custom2" speed="25.00" length="7.52" shape="284.22,249.08 286.72,249.62 288.44,249.97 290.11,250.50 292.42,251.54"/>
        <lane id=":1791656852_0_1" index="1" allow="private emergency authority army vip passenger hov taxi bus coach delivery truck trailer motorcycle evehicle custom1 custom2" speed="25.00" length="7.52" shape="283.49,252.20 285.78,252.68 287.36,252.99 288.89,253.46 291.01,254.41"/>
        <lane id=":1791656852_0_2" index="2" allow="private emergency authority army vip passenger hov taxi bus coach delivery truck trailer motorcycle evehicle custom1 custom2" speed="25.00" length="7.52" shape="282.76,255.31 284.84,255.75 286.28,256.02 287.67,256.43 289.60,257.28"/>
        <lane id=":1791656852_0_3" index="3" allow="private emergency authority army vip passenger hov taxi bus coach delivery truck trailer motorcycle evehicle custom1 custom2" speed="25.00" length="7.52" shape="282.02,258.43 283.90,258.81 285.20,259.04 286.46,259.39 288.19,260.16"/>
    </edge>
    <edge id=":1791656852_4" function="internal">
        <lane id=":1791656852_4_0" index="0" allow="private emergency authority army vip passenger hov taxi bus coach delivery truck trailer motorcycle evehicle custom1 custom2" speed="19.45" length="5.59" shape="281.40,261.69 283.05,261.90 284.19,262.05 285.28,262.36 286.79,263.03"/>
    </edge>
    <edge id=":245396678_0" function="internal">
        <lane id=":245396678_0_0" index="0" disallow="tram rail_urban rail rail_electric rail_fast ship" speed="13.89" length="9.60" shape="403.30,257.36 400.55,257.71 398.64,257.86 396.78,258.16 394.15,258.96"/>
        <lane id=":245396678_0_1" index="1" disallow="tram rail_urban rail rail_electric rail_fast ship" speed="13.89" length="9.60" shape="402.76,254.20 399.85,254.58 397.83,254.76 395.86,255.09 393.08,255.95"/>
    </edge>
    <edge id=":245396678_2" function="internal">
        <lane id=":245396678_2_0" index="0" allow="private emergency authority army vip passenger hov taxi bus coach delivery truck trailer motorcycle evehicle custom1 custom2" speed="13.89" length="12.36" shape="403.05,248.91 400.77,251.18 398.86,252.96 396.55,254.47 393.08,255.95"/>
    </edge>
    <edge id=":245396683_0" function="internal">
        <lane id=":245396683_0_0" index="0" disallow="tram rail_urban rail rail_electric rail_fast ship" speed="16.67" length="11.35" shape="312.89,294.27 309.74,293.20 307.47,292.80 305.18,292.44 301.98,291.46"/>
        <lane id=":245396683_0_1" index="1" disallow="tram rail_urban rail rail_electric rail_fast ship" speed="16.67" length="11.35" shape="314.13,291.32 310.94,290.23 308.65,289.83 306.35,289.45 303.12,288.47"/>
    </edge>
    <edge id=":245396683_2" function="internal">
        <lane id=":245396683_2_0" index="0" disallow="tram rail_urban rail rail_electric rail_fast ship" speed="13.62" length="10.72" shape="314.41,287.34 311.08,288.40 308.70,289.19 306.35,289.34 303.12,288.47"/>
        <lane id=":245396683_2_1" index="1" disallow="tram rail_urban rail rail_electric rail_fast ship" speed="12.45" length="10.72" shape="313.60,284.24 310.84,285.17 308.87,285.93 306.93,286.15 304.26,285.47"/>
    </edge>
    <edge id=":245396695_0" function="internal">
        <lane id=":245396695_0_0" index="0" disallow="pedestrian tram rail_urban rail rail_electric rail_fast ship" speed="13.89" length="19.49" shape="329.43,364.12 332.12,344.90"/>
        <lane id=":245396695_0_1" index="1" disallow="pedestrian tram rail_urban rail rail_electric rail_fast ship" speed="13.89" length="19.49" shape="332.61,364.41 335.33,345.03"/>
    </edge>
    <edge id=":245396695_2" function="internal">
        <lane id=":245396695_2_0" index="0" disallow="tram rail_urban rail rail_electric rail_fast ship" speed="13.89" length="19.77" shape="332.61,364.41 333.48,358.69 334.85,354.94 336.88,351.37 339.71,346.21"/>
        <lane id=":245396695_2_1" index="1" disallow="tram rail_urban rail rail_electric rail_fast ship" speed="13.89" length="18.58" shape="335.80,364.70 336.63,359.33 337.96,355.82 339.90,352.48 342.57,347.64"/>
    </edge>
    <edge id=":245396710_0" function="internal">
        <lane id=":245396710_0_0" index="0" allow="private emergency authority army vip passenger hov taxi bus coach delivery truck trailer motorcycle evehicle custom1 custom2" speed="13.89" length="8.20" shape="334.69,249.73 332.50,248.71 330.84,248.36 329.19,247.99 327.02,246.95"/>
        <lane id=":245396710_0_1" index="1" allow="private emergency authority army vip passenger hov taxi bus coach delivery truck trailer motorcycle evehicle custom1 custom2" speed="13.89" length="8.20" shape="334.69,249.73 332.77,248.29 331.68,246.99 330.60,245.69 328.69,244.22"/>
    </edge>
    <edge id=":245396733_0" function="internal">
        <lane id=":245396733_0_0" index="0" allow="private emergency authority army vip passenger hov taxi bus coach delivery truck trailer motorcycle evehicle custom1 custom2" speed="13.89" length="12.82" shape="406.29,174.35 409.28,176.79 411.06,178.77 412.69,180.91 415.24,183.85"/>
        <lane id=":245396733_0_1" index="1" allow="private emergency authority army vip passenger hov taxi bus coach delivery truck trailer motorcycle evehicle custom1 custom2" speed="13.89" length="12.82" shape="404.40,176.94 407.26,179.27 408.94,181.18 410.49,183.24 412.92,186.06"/>
    </edge>
    <edge id=":245396733_2" function="internal">
        <lane id=":245396733_2_0" index="0" allow="private emergency authority army vip passenger hov taxi bus coach delivery truck trailer motorcycle evehicle custom1 custom2" speed="13.89" length="12.69" shape="404.40,176.94 407.09,179.54 408.29,182.10 408.88,184.84 409.76,188.04"/>
    </edge>
    <edge id=":245404135_0" function="internal">
        <lane id=":245404135_0_0" index="0" disallow="tram rail_urban rail rail_electric rail_fast ship" speed="13.89" length="12.74" shape="321.96,17.60 317.45,29.51"/>
    </edge>
    <edge id=":245404135_1" function="internal">
        <lane id=":245404135_1_0" index="0" disallow="tram rail_urban rail rail_electric rail_fast ship" speed="6.42" length="2.71" shape="321.96,17.60 320.60,19.82 320.50,19.86"/>
    </edge>
    <edge id=":245404135_4" function="internal">
        <lane id=":245404135_4_0" index="0" disallow="tram rail_urban rail rail_electric rail_fast ship" speed="6.42" length="8.18" shape="320.50,19.86 318.67,20.65 316.18,20.08 313.12,18.12"/>
    </edge>
    <edge id=":245404135_2" function="internal">
        <lane id=":245404135_2_0" index="0" disallow="tram rail_urban rail rail_electric rail_fast ship" speed="7.40" length="9.01" shape="314.47,28.34 314.80,26.39 314.35,24.45 313.13,22.53 311.13,20.62"/>
    </edge>
    <edge id=":245404135_3" function="internal">
        <lane id=":245404135_3_0" index="0" disallow="tram rail_urban rail rail_electric rail_fast ship" speed="13.89" length="12.67" shape="314.47,28.34 318.96,16.49"/>
    </edge>
    <edge id=":245404238_0" function="internal">
        <lane id=":245404238_0_0" index="0" allow="private emergency authority army vip passenger hov taxi bus coach delivery truck trailer motorcycle evehicle custom1 custom2" speed="13.89" length="11.96" shape="254.93,178.18 251.49,178.91 248.83,178.41 246.29,177.75 243.19,177.96"/>
    </edge>
    <edge id=":245404238_1" function="internal">
        <lane id=":245404238_1_0" index="0" allow="private emergency authority army vip passenger hov taxi bus coach delivery truck trailer motorcycle evehicle custom1 custom2" speed="13.89" length="9.89" shape="252.48,172.27 249.76,173.29 247.79,173.69 245.75,173.64 242.84,173.29"/>
    </edge>
    <edge id=":3073120651_0" function="internal">
        <lane id=":3073120651_0_0" index="0" allow="private emergency authority army vip passenger hov taxi bus coach delivery truck trailer motorcycle evehicle custom1 custom2" speed="7.75" length="6.22" shape="223.63,153.88 223.40,152.59 223.01,150.70 222.77,148.86 222.98,147.75"/>
    </edge>
    <edge id=":3614360110_0" function="internal">
        <lane id=":3614360110_0_0" index="0" disallow="tram rail_urban rail rail_electric rail_fast ship" speed="3.65" length="4.67" shape="161.76,111.73 160.35,112.04 159.49,111.78 159.19,110.94 159.44,109.51"/>
    </edge>
    <edge id=":4738364153_0" function="internal">
        <lane id=":4738364153_0_0" index="0" disallow="tram rail_urban rail rail_electric rail_fast ship" speed="13.89" length="8.21" shape="321.16,450.70 321.15,448.30 320.77,446.66 320.37,445.01 320.35,442.61"/>
        <lane id=":4738364153_0_1" index="1" disallow="tram rail_urban rail rail_electric rail_fast ship" speed="13.89" length="8.21" shape="324.34,451.03 324.34,448.62 323.95,446.97 323.56,445.33 323.54,442.92"/>
        <lane id=":4738364153_0_2" index="2" disallow="tram rail_urban rail rail_electric rail_fast ship" speed="13.89" length="8.21" shape="327.53,451.35 327.52,448.94 327.14,447.29 326.74,445.64 326.72,443.22"/>
        <lane id=":4738364153_0_3" index="3" disallow="tram rail_urban rail rail_electric rail_fast ship" speed="13.89" length="8.21" shape="327.53,451.35 328.02,448.99 328.73,447.44 329.43,445.90 329.91,443.53"/>
    </edge>
    <edge id=":4747950911_0" function="internal">
        <lane id=":4747950911_0_0" index="0" disallow="tram rail_urban rail rail_electric rail_fast ship" speed="7.11" length="4.40" shape="351.05,315.08 352.17,315.19 353.24,315.08 354.27,314.75 355.25,314.20"/>
        <lane id=":4747950911_0_1" index="1" disallow="tram rail_urban rail rail_electric rail_fast ship" speed="8.77" length="6.92" shape="350.46,318.23 352.22,318.39 353.90,318.22 355.52,317.70 357.06,316.84"/>
        <lane id=":4747950911_0_2" index="2" disallow="tram rail_urban rail rail_electric rail_fast ship" speed="10.17" length="9.44" shape="349.87,321.37 352.26,321.60 354.56,321.36 356.76,320.65 358.87,319.48"/>
    </edge>
    <edge id=":4747950911_3" function="internal">
        <lane id=":4747950911_3_0" index="0" disallow="tram rail_urban rail rail_electric rail_fast ship" speed="15.28" length="15.70" shape="347.92,331.91 350.94,328.25 353.55,326.26 356.54,324.64 360.67,322.12"/>
        <lane id=":4747950911_3_1" index="1" disallow="tram rail_urban rail rail_electric rail_fast ship" speed="15.28" length="15.70" shape="350.54,333.76 353.36,330.37 355.81,328.55 358.62,327.09 362.48,324.76"/>
    </edge>
    <edge id=":5230807088_0" function="internal">
        <lane id=":5230807088_0_0" index="0" allow="private emergency authority army vip passenger hov taxi bus coach delivery truck trailer motorcycle evehicle custom1 custom2" speed="13.89" length="7.96" shape="288.59,162.23 286.56,163.51 285.36,164.69 284.13,165.82 282.04,166.96"/>
        <lane id=":5230807088_0_1" index="1" allow="private emergency authority army vip passenger hov taxi bus coach delivery truck trailer motorcycle evehicle custom1 custom2" speed="13.89" length="7.96" shape="287.17,159.36 285.20,160.61 284.03,161.77 282.84,162.89 280.81,164.01"/>
        <lane id=":5230807088_0_2" index="2" allow="private emergency authority army vip passenger hov taxi bus coach delivery truck trailer motorcycle evehicle custom1 custom2" speed="13.89" length="7.96" shape="287.17,159.36 285.02,160.14 283.42,160.29 281.80,160.40 279.59,161.05"/>
    </edge>
    <edge id=":5243175684_0" function="internal">
        <lane id=":5243175684_0_0" index="0" disallow="tram rail_urban rail rail_electric rail_fast ship" speed="3.65" length="4.67" shape="445.37,-0.59 446.56,-1.41 447.45,-1.49 448.05,-0.82 448.35,0.59"/>
    </edge>
    <edge id=":5683974196_0" function="internal">
        <lane id=":5683974196_0_0" index="0" disallow="tram rail_urban rail rail_electric rail_fast ship" speed="16.67" length="21.10" shape="424.64,257.66 419.27,260.88 415.35,262.69 411.42,264.46 405.98,267.59"/>
        <lane id=":5683974196_0_1" index="1" disallow="tram rail_urban rail rail_electric rail_fast ship" speed="16.67" length="21.10" shape="422.86,254.99 417.51,258.21 413.61,260.01 409.68,261.77 404.26,264.89"/>
        <lane id=":5683974196_0_2" index="2" disallow="tram rail_urban rail rail_electric rail_fast ship" speed="16.67" length="21.10" shape="421.09,252.33 415.75,255.54 411.86,257.33 407.95,259.09 402.54,262.19"/>
    </edge>
    <edge id=":5683974196_3" function="internal">
        <lane id=":5683974196_3_0" index="0" disallow="tram rail_urban rail rail_electric rail_fast ship" speed="15.28" length="18.57" shape="421.09,252.33 416.40,255.04 412.82,256.18 408.98,256.63 403.50,257.32"/>
        <lane id=":5683974196_3_1" index="1" disallow="tram rail_urban rail rail_electric rail_fast ship" speed="15.28" length="17.23" shape="419.31,249.67 414.96,252.17 411.63,253.17 408.05,253.55 402.95,254.17"/>
    </edge>
    <edge id=":574486356_0" function="internal">
        <lane id=":574486356_0_0" index="0" allow="private emergency authority army vip passenger hov taxi bus coach delivery truck trailer motorcycle evehicle custom1 custom2" speed="25.00" length="9.68" shape="559.55,418.48 561.06,420.63 561.16,422.79 561.28,424.93 562.85,427.00"/>
        <lane id=":574486356_0_1" index="1" allow="private emergency authority army vip passenger hov taxi bus coach delivery truck trailer motorcycle evehicle custom1 custom2" speed="25.00" length="9.68" shape="557.57,421.00 559.10,423.16 559.23,425.34 559.37,427.50 560.96,429.58"/>
        <lane id=":574486356_0_2" index="2" allow="private emergency authority army vip passenger hov taxi bus coach delivery truck trailer motorcycle evehicle custom1 custom2" speed="25.00" length="9.68" shape="555.58,423.51 557.15,425.69 557.29,427.89 557.46,430.06 559.08,432.17"/>
        <lane id=":574486356_0_3" index="3" allow="private emergency authority army vip passenger hov taxi bus coach delivery truck trailer motorcycle evehicle custom1 custom2" speed="25.00" length="9.68" shape="553.60,426.02 555.19,428.23 555.36,430.44 555.55,432.63 557.19,434.76"/>
    </edge>
    <edge id=":574486563_0" function="internal">
        <lane id=":574486563_0_0" index="0" allow="private emergency authority army vip passenger hov taxi bus coach delivery truck trailer motorcycle evehicle custom1 custom2" speed="13.89" length="10.80" shape="102.12,248.67 102.26,251.89 101.55,254.10 100.70,256.32 100.43,259.59"/>
        <lane id=":574486563_0_1" index="1" allow="private emergency authority army vip passenger hov taxi bus coach delivery truck trailer motorcycle evehicle custom1 custom2" speed="13.89" length="10.80" shape="98.98,249.30 99.10,252.39 98.37,254.51 97.51,256.65 97.24,259.79"/>