<?xml version="1.0" encoding="UTF-8"?>

<!-- generated on 2023-07-14 14:52:18 by Eclipse SUMO netconvert Version 1.17.0
<configuration xmlns:xsi="http://www.w3.org/2001/XMLSchema-instance" xsi:noNamespaceSchemaLocation="http://sumo.dlr.de/xsd/netconvertConfiguration.xsd">

    <input>
        <sumo-net-file value="osm.net.xml.gz"/>
    </input>

    <output>
        <output-file value="osm.net.xml"/>
        <output.street-names value="true"/>
    </output>

    <processing>
        <geometry.min-radius.fix.railways value="false"/>
        <geometry.max-grade.fix value="false"/>
        <offset.disable-normalization value="true"/>
        <lefthand value="0"/>
    </processing>

    <junctions>
        <no-turnarounds value="true"/>
        <junctions.corner-detail value="5"/>
        <junctions.limit-turn-speed value="5.50"/>
        <rectangular-lane-cut value="0"/>
    </junctions>

    <pedestrian>
        <walkingareas value="0"/>
    </pedestrian>

</configuration>
-->

<net version="1.16" junctionCornerDetail="5" limitTurnSpeed="5.50" xmlns:xsi="http://www.w3.org/2001/XMLSchema-instance" xsi:noNamespaceSchemaLocation="http://sumo.dlr.de/xsd/net_file.xsd">

    <location netOffset="-363601.98,-142171.81" convBoundary="0.00,0.00,602.67,384.66" origBoundary="103.774011,1.285977,103.779428,1.289456" projParameter="+proj=utm +zone=48 +ellps=WGS84 +datum=WGS84 +units=m +no_defs"/>

    <type id="highway.bridleway" priority="1" numLanes="1" speed="2.78" allow="pedestrian" oneway="1" width="2.00"/>
    <type id="highway.bus_guideway" priority="1" numLanes="1" speed="27.78" allow="bus" oneway="1"/>
    <type id="highway.cycleway" priority="1" numLanes="1" speed="5.56" allow="bicycle" oneway="0" width="1.00"/>
    <type id="highway.footway" priority="1" numLanes="1" speed="2.78" allow="pedestrian" oneway="1" width="2.00"/>
    <type id="highway.ford" priority="1" numLanes="1" speed="2.78" allow="army" oneway="0"/>
    <type id="highway.living_street" priority="2" numLanes="1" speed="2.78" disallow="tram rail_urban rail rail_electric rail_fast ship" oneway="0"/>
    <type id="highway.motorway" priority="14" numLanes="2" speed="39.44" allow="private emergency authority army vip passenger hov taxi bus coach delivery truck trailer motorcycle evehicle custom1 custom2" oneway="1"/>
    <type id="highway.motorway_link" priority="9" numLanes="1" speed="22.22" allow="private emergency authority army vip passenger hov taxi bus coach delivery truck trailer motorcycle evehicle custom1 custom2" oneway="1"/>
    <type id="highway.path" priority="1" numLanes="1" speed="5.56" allow="pedestrian bicycle" oneway="0" width="2.00"/>
    <type id="highway.pedestrian" priority="1" numLanes="1" speed="2.78" allow="pedestrian" oneway="1" width="2.00"/>
    <type id="highway.primary" priority="12" numLanes="2" speed="27.78" disallow="tram rail_urban rail rail_electric rail_fast ship" oneway="0"/>
    <type id="highway.primary_link" priority="7" numLanes="1" speed="22.22" disallow="tram rail_urban rail rail_electric rail_fast ship" oneway="0"/>
    <type id="highway.raceway" priority="15" numLanes="2" speed="83.33" allow="vip" oneway="0"/>
    <type id="highway.residential" priority="3" numLanes="1" speed="13.89" disallow="tram rail_urban rail rail_electric rail_fast ship" oneway="0"/>
    <type id="highway.secondary" priority="11" numLanes="1" speed="27.78" disallow="tram rail_urban rail rail_electric rail_fast ship" oneway="0"/>
    <type id="highway.secondary_link" priority="6" numLanes="1" speed="22.22" disallow="tram rail_urban rail rail_electric rail_fast ship" oneway="0"/>
    <type id="highway.service" priority="1" numLanes="1" speed="5.56" allow="pedestrian delivery bicycle" oneway="0"/>
    <type id="highway.stairs" priority="1" numLanes="1" speed="1.39" allow="pedestrian" oneway="1" width="2.00"/>
    <type id="highway.step" priority="1" numLanes="1" speed="1.39" allow="pedestrian" oneway="1" width="2.00"/>
    <type id="highway.steps" priority="1" numLanes="1" speed="1.39" allow="pedestrian" oneway="1" width="2.00"/>
    <type id="highway.tertiary" priority="10" numLanes="1" speed="22.22" disallow="tram rail_urban rail rail_electric rail_fast ship" oneway="0"/>
    <type id="highway.tertiary_link" priority="5" numLanes="1" speed="22.22" disallow="tram rail_urban rail rail_electric rail_fast ship" oneway="0"/>
    <type id="highway.track" priority="1" numLanes="1" speed="5.56" allow="pedestrian motorcycle moped bicycle" oneway="0"/>
    <type id="highway.trunk" priority="13" numLanes="2" speed="27.78" disallow="pedestrian bicycle tram rail_urban rail rail_electric rail_fast ship" oneway="0"/>
    <type id="highway.trunk_link" priority="8" numLanes="1" speed="22.22" disallow="pedestrian bicycle tram rail_urban rail rail_electric rail_fast ship" oneway="0"/>
    <type id="highway.unclassified" priority="4" numLanes="1" speed="13.89" disallow="tram rail_urban rail rail_electric rail_fast ship" oneway="0"/>
    <type id="highway.unsurfaced" priority="1" numLanes="1" speed="8.33" disallow="tram rail_urban rail rail_electric rail_fast ship" oneway="0"/>
    <type id="railway.highspeed" priority="21" numLanes="1" speed="69.44" allow="rail_fast" oneway="1"/>
    <type id="railway.light_rail" priority="19" numLanes="1" speed="27.78" allow="rail_urban" oneway="1"/>
    <type id="railway.preserved" priority="16" numLanes="1" speed="27.78" allow="rail" oneway="1"/>
    <type id="railway.rail" priority="20" numLanes="1" speed="44.44" allow="rail" oneway="1"/>
    <type id="railway.subway" priority="18" numLanes="1" speed="27.78" allow="rail_urban" oneway="1"/>
    <type id="railway.tram" priority="17" numLanes="1" speed="13.89" allow="tram" oneway="1"/>

    <edge id=":1199563405_0" function="internal">
        <lane id=":1199563405_0_0" index="0" disallow="pedestrian bicycle tram rail_urban rail rail_electric rail_fast ship" speed="19.44" length="8.20" shape="420.63,138.66 418.83,140.27 417.84,141.66 416.86,143.05 415.05,144.65"/>
        <lane id=":1199563405_0_1" index="1" disallow="pedestrian bicycle tram rail_urban rail rail_electric rail_fast ship" speed="19.44" length="8.20" shape="418.74,136.07 416.95,137.68 415.97,139.07 414.99,140.45 413.19,142.05"/>
        <lane id=":1199563405_0_2" index="2" disallow="pedestrian bicycle tram rail_urban rail rail_electric rail_fast ship" speed="19.44" length="8.20" shape="416.86,133.48 415.07,135.09 414.10,136.47 413.13,137.85 411.33,139.44"/>
        <lane id=":1199563405_0_3" index="3" disallow="pedestrian bicycle tram rail_urban rail rail_electric rail_fast ship" speed="19.44" length="8.20" shape="416.86,133.48 414.79,134.68 413.17,135.17 411.55,135.65 409.47,136.84"/>
    </edge>
    <edge id=":1617443929_0" function="internal">
        <lane id=":1617443929_0_0" index="0" disallow="pedestrian bicycle tram rail_urban rail rail_electric rail_fast ship" speed="19.44" length="8.14" shape="463.46,115.05 465.08,113.37 465.89,111.94 466.69,110.50 468.25,108.75"/>
        <lane id=":1617443929_0_1" index="1" disallow="pedestrian bicycle tram rail_urban rail rail_electric rail_fast ship" speed="19.44" length="8.14" shape="465.52,117.50 467.16,115.79 468.00,114.35 468.82,112.89 470.40,111.11"/>
        <lane id=":1617443929_0_2" index="2" disallow="pedestrian bicycle tram rail_urban rail rail_electric rail_fast ship" speed="19.44" length="8.14" shape="467.57,119.95 469.24,118.22 470.10,116.76 470.94,115.28 472.55,113.48"/>
        <lane id=":1617443929_0_3" index="3" disallow="pedestrian bicycle tram rail_urban rail rail_electric rail_fast ship" speed="19.44" length="8.14" shape="467.57,119.95 469.59,118.59 471.18,117.95 472.75,117.29 474.71,115.85"/>
    </edge>
    <edge id=":1832520869_0" function="internal">
        <lane id=":1832520869_0_0" index="0" disallow="tram rail_urban rail rail_electric rail_fast ship" speed="16.67" length="8.08" shape="452.19,295.47 450.57,297.21 449.72,298.65 448.85,300.07 447.17,301.73"/>
    </edge>
    <edge id=":239707189_0" function="internal">
        <lane id=":239707189_0_0" index="0" disallow="tram rail_urban rail rail_electric rail_fast ship" speed="16.67" length="8.16" shape="509.24,219.03 508.15,221.15 507.76,222.78 507.38,224.42 506.35,226.57"/>
        <lane id=":239707189_0_1" index="1" disallow="tram rail_urban rail rail_electric rail_fast ship" speed="16.67" length="8.16" shape="509.24,219.03 507.72,220.89 506.39,221.94 505.08,223.00 503.62,224.90"/>
    </edge>
    <edge id=":4613251489_0" function="internal">
        <lane id=":4613251489_0_0" index="0" disallow="tram rail_urban rail rail_electric rail_fast ship" speed="6.90" length="9.96" shape="310.62,365.08 307.96,365.59 305.74,365.13 303.96,363.72 302.64,361.35"/>
    </edge>
    <edge id=":4613251490_0" function="internal">
        <lane id=":4613251490_0_0" index="0" disallow="tram rail_urban rail rail_electric rail_fast ship" speed="3.65" length="4.67" shape="275.56,284.33 275.92,282.94 276.55,282.30 277.43,282.41 278.58,283.29"/>
    </edge>
    <edge id=":4726364182_0" function="internal">
        <lane id=":4726364182_0_0" index="0" disallow="pedestrian bicycle tram rail_urban rail rail_electric rail_fast ship" speed="19.44" length="17.09" shape="326.42,207.61 341.19,199.21"/>
        <lane id=":4726364182_0_1" index="1" disallow="pedestrian bicycle tram rail_urban rail rail_electric rail_fast ship" speed="19.44" length="17.09" shape="327.86,210.47 342.72,202.02"/>
        <lane id=":4726364182_0_2" index="2" disallow="pedestrian bicycle tram rail_urban rail rail_electric rail_fast ship" speed="19.44" length="17.09" shape="329.30,213.33 344.24,204.83"/>
    </edge>
    <edge id=":4726364182_3" function="internal">
        <lane id=":4726364182_3_0" index="0" disallow="pedestrian bicycle tram rail_urban rail rail_electric rail_fast ship" speed="16.66" length="17.20" shape="329.30,213.33 334.40,211.16 338.58,210.10 342.27,209.73 345.91,209.63"/>
    </edge>
    <edge id=":4726364186_0" function="internal">
        <lane id=":4726364186_0_0" index="0" disallow="tram rail_urban rail rail_electric rail_fast ship" speed="13.89" length="8.59" shape="379.65,211.95 384.72,218.88"/>
    </edge>
    <edge id=":4726364186_1" function="internal">
        <lane id=":4726364186_1_0" index="0" disallow="pedestrian bicycle tram rail_urban rail rail_electric rail_fast ship" speed="12.16" length="8.57" shape="377.29,215.12 379.76,215.82 381.55,216.26 383.06,217.08 384.72,218.88"/>
    </edge>
    <edge id=":4726364591_0" function="internal">
        <lane id=":4726364591_0_0" index="0" disallow="pedestrian bicycle tram rail_urban rail rail_electric rail_fast ship" speed="19.44" length="7.59" shape="407.37,159.68 413.70,155.60"/>
        <lane id=":4726364591_0_1" index="1" disallow="pedestrian bicycle tram rail_urban rail rail_electric rail_fast ship" speed="19.44" length="7.59" shape="409.12,162.36 415.50,158.25"/>
        <lane id=":4726364591_0_2" index="2" disallow="pedestrian bicycle tram rail_urban rail rail_electric rail_fast ship" speed="19.44" length="7.59" shape="410.86,165.04 417.29,160.90"/>
    </edge>
    <edge id=":4726364591_3" function="internal">
        <lane id=":4726364591_3_0" index="0" disallow="pedestrian bicycle tram rail_urban rail rail_electric rail_fast ship" speed="10.70" length="8.69" shape="414.27,167.42 414.35,164.45 413.83,162.11 413.83,160.14 415.50,158.25"/>
        <lane id=":4726364591_3_1" index="1" disallow="pedestrian bicycle tram rail_urban rail rail_electric rail_fast ship" speed="9.40" length="8.69" shape="414.27,167.42 414.66,165.20 414.96,163.60 415.68,162.27 417.29,160.90"/>
    </edge>
    <edge id=":5014444871_0" function="internal">
        <lane id=":5014444871_0_0" index="0" disallow="tram rail_urban rail rail_electric rail_fast ship" speed="13.89" length="8.76" shape="412.11,235.95 406.69,229.07"/>
    </edge>
    <edge id=":5014444871_1" function="internal">
        <lane id=":5014444871_1_0" index="0" disallow="pedestrian bicycle tram rail_urban rail rail_electric rail_fast ship" speed="11.08" length="8.74" shape="412.11,235.95 410.70,233.92 410.29,232.22 410.36,230.32 410.39,227.71"/>
    </edge>
    <edge id=":5176859024_0" function="internal">
        <lane id=":5176859024_0_0" index="0" disallow="tram rail_urban rail rail_electric rail_fast ship" speed="13.89" length="10.01" shape="451.97,276.22 444.69,269.36"/>
    </edge>
    <edge id=":5176859024_1" function="internal">
        <lane id=":5176859024_1_0" index="0" disallow="tram rail_urban rail rail_electric rail_fast ship" speed="12.48" length="10.12" shape="453.89,272.77 450.90,272.45 448.80,272.10 446.95,271.22 444.69,269.36"/>
    </edge>
    <edge id=":5176859028_0" function="internal">
        <lane id=":5176859028_0_0" index="0" disallow="tram rail_urban rail rail_electric rail_fast ship" speed="16.67" length="8.80" shape="478.87,271.50 473.72,278.81"/>
        <lane id=":5176859028_0_1" index="1" disallow="tram rail_urban rail rail_electric rail_fast ship" speed="16.67" length="8.80" shape="476.14,269.83 471.15,276.91"/>
    </edge>
    <edge id=":5176859028_2" function="internal">
        <lane id=":5176859028_2_0" index="0" disallow="tram rail_urban rail rail_electric rail_fast ship" speed="7.76" length="7.97" shape="476.14,269.83 475.06,271.02 473.50,271.86 471.47,272.33 468.97,272.45"/>
    </edge>
    <edge id=":5176859029_0" function="internal">
        <lane id=":5176859029_0_0" index="0" disallow="tram rail_urban rail rail_electric rail_fast ship" speed="16.67" length="8.33" shape="481.69,277.33 483.33,275.48 484.48,274.23 485.56,272.93 486.97,270.91"/>
    </edge>
    <edge id=":5176859029_1" function="internal">
        <lane id=":5176859029_1_0" index="0" disallow="tram rail_urban rail rail_electric rail_fast ship" speed="13.29" length="8.25" shape="485.39,278.82 485.42,276.36 485.44,274.61 485.82,273.00 486.97,270.91"/>
    </edge>
    <edge id=":5176859033_0" function="internal">
        <lane id=":5176859033_0_0" index="0" disallow="tram rail_urban rail rail_electric rail_fast ship" speed="13.89" length="9.96" shape="488.23,310.24 485.66,308.68 484.35,306.95 483.13,305.05 480.81,303.00"/>
        <lane id=":5176859033_0_1" index="1" disallow="tram rail_urban rail rail_electric rail_fast ship" speed="13.89" length="9.96" shape="489.43,307.27 487.02,305.78 485.83,304.10 484.72,302.27 482.55,300.32"/>
        <lane id=":5176859033_0_2" index="2" disallow="tram rail_urban rail rail_electric rail_fast ship" speed="13.89" length="9.96" shape="490.64,304.30 488.39,302.88 487.31,301.26 486.31,299.49 484.29,297.63"/>
    </edge>
    <edge id=":5176859033_3" function="internal">
        <lane id=":5176859033_3_0" index="0" disallow="tram rail_urban rail rail_electric rail_fast ship" speed="9.63" length="8.11" shape="491.84,301.34 489.84,300.24 488.82,298.97 488.19,297.32 487.32,295.04"/>
    </edge>
    <edge id=":5230916705_0" function="internal">
        <lane id=":5230916705_0_0" index="0" disallow="tram rail_urban rail rail_electric rail_fast ship" speed="16.67" length="8.21" shape="442.23,305.61 440.48,307.26 439.54,308.66 438.60,310.08 436.86,311.74"/>
        <lane id=":5230916705_0_1" index="1" disallow="tram rail_urban rail rail_electric rail_fast ship" speed="16.67" length="8.21" shape="442.23,305.61 440.17,306.86 438.56,307.40 436.96,307.94 434.91,309.21"/>
    </edge>
    <edge id=":5230916706_0" function="internal">
        <lane id=":5230916706_0_0" index="0" disallow="tram rail_urban rail rail_electric rail_fast ship" speed="16.67" length="8.06" shape="442.63,319.45 444.26,317.74 445.11,316.30 445.96,314.88 447.64,313.22"/>
    </edge>
    <edge id=":5280997527_0" function="internal">
        <lane id=":5280997527_0_0" index="0" disallow="pedestrian bicycle tram rail_urban rail rail_electric rail_fast ship" speed="19.44" length="8.04" shape="266.55,231.09 259.22,234.40"/>
        <lane id=":5280997527_0_1" index="1" disallow="pedestrian bicycle tram rail_urban rail rail_electric rail_fast ship" speed="19.44" length="8.04" shape="265.23,228.18 263.13,229.30 261.63,229.96 260.11,230.55 257.91,231.48"/>
        <lane id=":5280997527_0_2" index="2" disallow="pedestrian bicycle tram rail_urban rail rail_electric rail_fast ship" speed="19.44" length="8.04" shape="263.91,225.25 261.81,226.38 260.32,227.04 258.79,227.63 256.59,228.57"/>
    </edge>
    <edge id=":5280997527_3" function="internal">
        <lane id=":5280997527_3_0" index="0" disallow="pedestrian bicycle tram rail_urban rail rail_electric rail_fast ship" speed="10.85" length="9.22" shape="261.03,222.25 260.40,225.32 260.45,227.81 260.01,229.83 257.91,231.48"/>
        <lane id=":5280997527_3_1" index="1" disallow="pedestrian bicycle tram rail_urban rail rail_electric rail_fast ship" speed="9.63" length="9.22" shape="261.03,222.25 260.22,224.53 259.59,226.16 258.57,227.41 256.59,228.57"/>
    </edge>
    <edge id=":5683705005_0" function="internal">
        <lane id=":5683705005_0_0" index="0" disallow="tram rail_urban rail rail_electric rail_fast ship" speed="3.65" length="4.67" shape="331.41,301.10 332.82,301.41 333.47,302.02 333.39,302.91 332.55,304.08"/>
    </edge>
    <edge id=":5683705006_0" function="internal">
        <lane id=":5683705006_0_0" index="0" disallow="tram rail_urban rail rail_electric rail_fast ship" speed="16.67" length="14.13" shape="289.69,325.72 285.24,312.31"/>
    </edge>
    <edge id=":5683705006_1" function="internal">
        <lane id=":5683705006_1_0" index="0" disallow="tram rail_urban rail rail_electric rail_fast ship" speed="7.94" length="4.03" shape="289.69,325.72 288.97,322.07 289.04,321.76"/>
    </edge>
    <edge id=":5683705006_8" function="internal">
        <lane id=":5683705006_8_0" index="0" disallow="tram rail_urban rail rail_electric rail_fast ship" speed="7.94" length="10.04" shape="289.04,321.76 289.69,319.03 291.83,316.61 295.40,314.81"/>
    </edge>
    <edge id=":5683705006_2" function="internal">
        <lane id=":5683705006_2_0" index="0" disallow="tram rail_urban rail rail_electric rail_fast ship" speed="6.49" length="9.05" shape="296.41,317.85 294.13,319.00 292.77,320.56 292.32,322.52 292.79,324.89"/>
    </edge>
    <edge id=":5683705006_3" function="internal">
        <lane id=":5683705006_3_0" index="0" disallow="tram rail_urban rail rail_electric rail_fast ship" speed="8.00" length="14.22" shape="296.41,317.85 292.62,318.58 289.49,317.90 287.03,315.81 285.24,312.31"/>
    </edge>
    <edge id=":5683705006_4" function="internal">
        <lane id=":5683705006_4_0" index="0" disallow="tram rail_urban rail rail_electric rail_fast ship" speed="3.65" length="4.67" shape="296.41,317.85 295.02,317.47 294.39,316.83 294.51,315.95 295.40,314.81"/>
    </edge>
    <edge id=":5683705006_5" function="internal">
        <lane id=":5683705006_5_0" index="0" disallow="tram rail_urban rail rail_electric rail_fast ship" speed="6.51" length="9.05" shape="288.28,311.31 289.42,313.53 290.99,314.86 292.98,315.28 295.40,314.81"/>
    </edge>
    <edge id=":5683705006_6" function="internal">
        <lane id=":5683705006_6_0" index="0" disallow="tram rail_urban rail rail_electric rail_fast ship" speed="16.67" length="14.31" shape="288.28,311.31 292.79,324.89"/>
    </edge>
    <edge id=":5683705006_7" function="internal">
        <lane id=":5683705006_7_0" index="0" disallow="tram rail_urban rail rail_electric rail_fast ship" speed="3.65" length="1.44" shape="288.28,311.31 287.90,312.70"/>
    </edge>
    <edge id=":5683705006_9" function="internal">
        <lane id=":5683705006_9_0" index="0" disallow="tram rail_urban rail rail_electric rail_fast ship" speed="3.65" length="3.23" shape="287.90,312.70 287.26,313.33 286.38,313.20 285.24,312.31"/>
    </edge>
    <edge id=":6819907116_0" function="internal">
        <lane id=":6819907116_0_0" index="0" disallow="tram rail_urban rail rail_electric rail_fast ship" speed="13.89" length="8.20" shape="566.00,339.98 563.67,339.33 561.97,339.25 560.27,339.16 557.94,338.49"/>
        <lane id=":6819907116_0_1" index="1" disallow="tram rail_urban rail rail_electric rail_fast ship" speed="13.89" length="8.20" shape="567.17,337.00 564.85,336.36 563.15,336.28 561.46,336.19 559.14,335.52"/>
        <lane id=":6819907116_0_2" index="2" disallow="tram rail_urban rail rail_electric rail_fast ship" speed="13.89" length="8.20" shape="568.34,334.02 566.02,333.38 564.34,333.30 562.65,333.22 560.35,332.56"/>
        <lane id=":6819907116_0_3" index="3" disallow="tram rail_urban rail rail_electric rail_fast ship" speed="13.89" length="8.20" shape="568.34,334.02 566.21,332.92 564.94,331.82 563.66,330.72 561.55,329.59"/>
    </edge>
    <edge id=":7413930523_0" function="internal">
        <lane id=":7413930523_0_0" index="0" disallow="tram rail_urban rail rail_electric rail_fast ship" speed="3.65" length="4.67" shape="571.09,385.30 569.87,386.08 568.98,386.13 568.41,385.44 568.15,384.02"/>
    </edge>
    <edge id=":977370600_0" function="internal">
        <lane id=":977370600_0_0" index="0" disallow="tram rail_urban rail rail_electric rail_fast ship" speed="6.82" length="10.39" shape="579.27,350.23 581.77,351.63 583.19,353.48 583.52,355.78 582.76,358.55"/>
    </edge>
    <edge id=":cluster_239707191_5014444883_5014444898_5014445972_0" function="internal">
        <lane id=":cluster_239707191_5014444883_5014444898_5014445972_0_0" index="0" disallow="tram rail_urban rail rail_electric rail_fast ship" speed="9.37" length="15.59" shape="469.16,295.45 465.66,293.89 462.12,293.69 458.52,294.85 454.87,297.38"/>
    </edge>
    <edge id=":cluster_239707191_5014444883_5014444898_5014445972_1" function="internal">
        <lane id=":cluster_239707191_5014444883_5014444898_5014445972_1_0" index="0" disallow="tram rail_urban rail rail_electric rail_fast ship" speed="13.89" length="8.09" shape="471.28,293.02 469.27,291.71 467.92,290.77 466.64,289.73 464.86,288.12"/>
    </edge>
    <edge id=":cluster_239707191_5014444883_5014444898_5014445972_2" function="internal">
        <lane id=":cluster_239707191_5014444883_5014444898_5014445972_2_0" index="0" disallow="tram rail_urban rail rail_electric rail_fast ship" speed="7.78" length="13.95" shape="473.41,290.58 475.67,298.89 474.33,304.06"/>
    </edge>
    <edge id=":cluster_239707191_5014444883_5014444898_5014445972_16" function="internal">
        <lane id=":cluster_239707191_5014444883_5014444898_5014445972_16_0" index="0" disallow="tram rail_urban rail rail_electric rail_fast ship" speed="7.78" length="13.95" shape="474.33,304.06 469.39,306.09 460.85,304.98"/>
    </edge>
    <edge id=":cluster_239707191_5014444883_5014444898_5014445972_3" function="internal">
        <lane id=":cluster_239707191_5014444883_5014444898_5014445972_3_0" index="0" disallow="tram rail_urban rail rail_electric rail_fast ship" speed="8.48" length="15.04" shape="466.15,289.07 463.21,293.62 461.69,297.39 461.61,300.37 462.95,302.57"/>
    </edge>
    <edge id=":cluster_239707191_5014444883_5014444898_5014445972_4" function="internal">
        <lane id=":cluster_239707191_5014444883_5014444898_5014445972_4_0" index="0" disallow="tram rail_urban rail rail_electric rail_fast ship" speed="16.67" length="14.13" shape="466.15,289.07 463.37,292.10 460.93,293.61 458.27,294.93 454.87,297.38"/>
    </edge>
    <edge id=":cluster_239707191_5014444883_5014444898_5014445972_5" function="internal">
        <lane id=":cluster_239707191_5014444883_5014444898_5014445972_5_0" index="0" disallow="tram rail_urban rail rail_electric rail_fast ship" speed="5.07" length="5.44" shape="463.71,286.98 466.94,286.05 468.97,286.55"/>
    </edge>
    <edge id=":cluster_239707191_5014444883_5014444898_5014445972_6" function="internal">
        <lane id=":cluster_239707191_5014444883_5014444898_5014445972_6_0" index="0" disallow="tram rail_urban rail rail_electric rail_fast ship" speed="16.67" length="13.68" shape="463.71,286.98 461.02,289.90 458.65,291.35 456.07,292.61 452.77,294.96"/>
    </edge>
    <edge id=":cluster_239707191_5014444883_5014444898_5014445972_17" function="internal">
        <lane id=":cluster_239707191_5014444883_5014444898_5014445972_17_0" index="0" disallow="tram rail_urban rail rail_electric rail_fast ship" speed="5.07" length="5.44" shape="468.97,286.55 469.79,288.46 469.40,291.80"/>
    </edge>
    <edge id=":cluster_239707191_5014444883_5014444898_5014445972_7" function="internal">
        <lane id=":cluster_239707191_5014444883_5014444898_5014445972_7_0" index="0" disallow="tram rail_urban rail rail_electric rail_fast ship" speed="6.49" length="9.81" shape="455.80,298.04 454.35,292.16 455.37,288.55"/>
    </edge>
    <edge id=":cluster_239707191_5014444883_5014444898_5014445972_8" function="internal">
        <lane id=":cluster_239707191_5014444883_5014444898_5014445972_8_0" index="0" disallow="tram rail_urban rail rail_electric rail_fast ship" speed="8.44" length="16.56" shape="455.80,298.04 458.38,299.28 461.51,298.65 465.18,296.16 469.40,291.80"/>
    </edge>
    <edge id=":cluster_239707191_5014444883_5014444898_5014445972_9" function="internal">
        <lane id=":cluster_239707191_5014444883_5014444898_5014445972_9_0" index="0" disallow="tram rail_urban rail rail_electric rail_fast ship" speed="13.89" length="8.58" shape="455.80,298.04 457.77,299.58 459.34,300.34 460.93,301.09 462.95,302.57"/>
        <lane id=":cluster_239707191_5014444883_5014444898_5014445972_9_1" index="1" disallow="tram rail_urban rail rail_electric rail_fast ship" speed="13.89" length="8.58" shape="455.80,298.04 457.45,299.96 458.29,301.55 459.14,303.12 460.85,304.98"/>
    </edge>
    <edge id=":cluster_239707191_5014444883_5014444898_5014445972_11" function="internal">
        <lane id=":cluster_239707191_5014444883_5014444898_5014445972_11_0" index="0" disallow="tram rail_urban rail rail_electric rail_fast ship" speed="4.68" length="3.06" shape="455.80,298.04 455.74,297.75 454.84,296.51 453.99,295.61"/>
    </edge>
    <edge id=":cluster_239707191_5014444883_5014444898_5014445972_18" function="internal">
        <lane id=":cluster_239707191_5014444883_5014444898_5014445972_18_0" index="0" disallow="tram rail_urban rail rail_electric rail_fast ship" speed="6.49" length="9.81" shape="455.37,288.55 458.88,287.20 464.86,288.12"/>
    </edge>
    <edge id=":cluster_239707191_5014444883_5014444898_5014445972_19" function="internal">
        <lane id=":cluster_239707191_5014444883_5014444898_5014445972_19_0" index="0" disallow="tram rail_urban rail rail_electric rail_fast ship" speed="4.68" length="1.42" shape="453.99,295.61 453.66,295.26 452.77,294.96"/>
    </edge>
    <edge id=":cluster_239707191_5014444883_5014444898_5014445972_12" function="internal">
        <lane id=":cluster_239707191_5014444883_5014444898_5014445972_12_0" index="0" disallow="tram rail_urban rail rail_electric rail_fast ship" speed="5.88" length="7.84" shape="459.82,303.06 455.02,303.68 452.25,302.54"/>
    </edge>
    <edge id=":cluster_239707191_5014444883_5014444898_5014445972_13" function="internal">
        <lane id=":cluster_239707191_5014444883_5014444898_5014445972_13_0" index="0" disallow="tram rail_urban rail rail_electric rail_fast ship" speed="8.56" length="18.07" shape="459.82,303.06 464.33,298.63 466.67,294.66 466.85,291.16 464.86,288.12"/>
    </edge>
    <edge id=":cluster_239707191_5014444883_5014444898_5014445972_14" function="internal">
        <lane id=":cluster_239707191_5014444883_5014444898_5014445972_14_0" index="0" disallow="tram rail_urban rail rail_electric rail_fast ship" speed="16.67" length="14.81" shape="459.82,303.06 462.48,300.49 464.84,297.66 467.08,294.72 469.40,291.80"/>
    </edge>
    <edge id=":cluster_239707191_5014444883_5014444898_5014445972_15" function="internal">
        <lane id=":cluster_239707191_5014444883_5014444898_5014445972_15_0" index="0" disallow="tram rail_urban rail rail_electric rail_fast ship" speed="4.04" length="1.07" shape="459.82,303.06 460.20,303.00 460.34,303.53 460.36,303.66"/>
    </edge>
    <edge id=":cluster_239707191_5014444883_5014444898_5014445972_20" function="internal">
        <lane id=":cluster_239707191_5014444883_5014444898_5014445972_20_0" index="0" disallow="tram rail_urban rail rail_electric rail_fast ship" speed="5.88" length="7.84" shape="452.25,302.54 451.50,299.63 452.77,294.96"/>
    </edge>
    <edge id=":cluster_239707191_5014444883_5014444898_5014445972_21" function="internal">
        <lane id=":cluster_239707191_5014444883_5014444898_5014445972_21_0" index="0" disallow="tram rail_urban rail rail_electric rail_fast ship" speed="4.04" length="1.42" shape="460.36,303.66 460.48,304.31 460.85,304.98"/>
    </edge>
    <edge id=":cluster_4675918780_4726236499_5014444867_5014444868_0" function="internal">
        <lane id=":cluster_4675918780_4726236499_5014444867_5014444868_0_0" index="0" disallow="tram rail_urban rail rail_electric rail_fast ship" speed="5.86" length="7.81" shape="373.06,184.62 373.22,189.44 371.83,192.08"/>
    </edge>
    <edge id=":cluster_4675918780_4726236499_5014444867_5014444868_1" function="internal">
        <lane id=":cluster_4675918780_4726236499_5014444867_5014444868_1_0" index="0" disallow="pedestrian bicycle tram rail_urban rail rail_electric rail_fast ship" speed="9.62" length="19.61" shape="373.06,184.62 369.39,180.87 365.30,179.08 360.79,179.26 355.85,181.40"/>
    </edge>
    <edge id=":cluster_4675918780_4726236499_5014444867_5014444868_11" function="internal">
        <lane id=":cluster_4675918780_4726236499_5014444867_5014444868_11_0" index="0" disallow="tram rail_urban rail rail_electric rail_fast ship" speed="5.86" length="7.81" shape="371.83,192.08 368.88,192.55 364.37,190.85"/>
    </edge>