<?xml version="1.0" encoding="UTF-8"?>

<!-- generated on 2023-07-11 16:13:30 by Eclipse SUMO netconvert Version 1.17.0
<configuration xmlns:xsi="http://www.w3.org/2001/XMLSchema-instance" xsi:noNamespaceSchemaLocation="http://sumo.dlr.de/xsd/netconvertConfiguration.xsd">

    <input>
        <sumo-net-file value="osm.net.xml.gz"/>
    </input>

    <output>
        <output-file value="osm.net.xml"/>
        <output.street-names value="true"/>
    </output>

    <processing>
        <geometry.min-radius.fix.railways value="false"/>
        <geometry.max-grade.fix value="false"/>
        <offset.disable-normalization value="true"/>
        <lefthand value="1"/>
    </processing>

    <junctions>
        <no-turnarounds value="true"/>
        <junctions.corner-detail value="5"/>
        <junctions.limit-turn-speed value="5.50"/>
        <rectangular-lane-cut value="0"/>
    </junctions>

    <pedestrian>
        <walkingareas value="0"/>
    </pedestrian>

</configuration>
-->

<net version="1.16" junctionCornerDetail="5" lefthand="true" limitTurnSpeed="5.50" xmlns:xsi="http://www.w3.org/2001/XMLSchema-instance" xsi:noNamespaceSchemaLocation="http://sumo.dlr.de/xsd/net_file.xsd">

    <location netOffset="-352735.05,-147961.03" convBoundary="0.00,0.00,1626.41,2000.59" origBoundary="103.676321,1.338289,103.690939,1.356390" projParameter="+proj=utm +zone=48 +ellps=WGS84 +datum=WGS84 +units=m +no_defs"/>

    <type id="highway.bridleway" priority="1" numLanes="1" speed="2.78" allow="pedestrian" oneway="1" width="2.00"/>
    <type id="highway.bus_guideway" priority="1" numLanes="1" speed="27.78" allow="bus" oneway="1"/>
    <type id="highway.cycleway" priority="1" numLanes="1" speed="5.56" allow="bicycle" oneway="0" width="1.00"/>
    <type id="highway.footway" priority="1" numLanes="1" speed="2.78" allow="pedestrian" oneway="1" width="2.00"/>
    <type id="highway.ford" priority="1" numLanes="1" speed="2.78" allow="army" oneway="0"/>
    <type id="highway.living_street" priority="2" numLanes="1" speed="2.78" disallow="tram rail_urban rail rail_electric rail_fast ship" oneway="0"/>
    <type id="highway.motorway" priority="14" numLanes="2" speed="39.44" allow="private emergency authority army vip passenger hov taxi bus coach delivery truck trailer motorcycle evehicle custom1 custom2" oneway="1"/>
    <type id="highway.motorway_link" priority="9" numLanes="1" speed="22.22" allow="private emergency authority army vip passenger hov taxi bus coach delivery truck trailer motorcycle evehicle custom1 custom2" oneway="1"/>
    <type id="highway.path" priority="1" numLanes="1" speed="5.56" allow="pedestrian bicycle" oneway="0" width="2.00"/>
    <type id="highway.pedestrian" priority="1" numLanes="1" speed="2.78" allow="pedestrian" oneway="1" width="2.00"/>
    <type id="highway.primary" priority="12" numLanes="2" speed="27.78" disallow="tram rail_urban rail rail_electric rail_fast ship" oneway="0"/>
    <type id="highway.primary_link" priority="7" numLanes="1" speed="22.22" disallow="tram rail_urban rail rail_electric rail_fast ship" oneway="0"/>
    <type id="highway.raceway" priority="15" numLanes="2" speed="83.33" allow="vip" oneway="0"/>
    <type id="highway.residential" priority="3" numLanes="1" speed="13.89" disallow="tram rail_urban rail rail_electric rail_fast ship" oneway="0"/>
    <type id="highway.secondary" priority="11" numLanes="1" speed="27.78" disallow="tram rail_urban rail rail_electric rail_fast ship" oneway="0"/>
    <type id="highway.secondary_link" priority="6" numLanes="1" speed="22.22" disallow="tram rail_urban rail rail_electric rail_fast ship" oneway="0"/>
    <type id="highway.service" priority="1" numLanes="1" speed="5.56" allow="pedestrian delivery bicycle" oneway="0"/>
    <type id="highway.stairs" priority="1" numLanes="1" speed="1.39" allow="pedestrian" oneway="1" width="2.00"/>
    <type id="highway.step" priority="1" numLanes="1" speed="1.39" allow="pedestrian" oneway="1" width="2.00"/>
    <type id="highway.steps" priority="1" numLanes="1" speed="1.39" allow="pedestrian" oneway="1" width="2.00"/>
    <type id="highway.tertiary" priority="10" numLanes="1" speed="22.22" disallow="tram rail_urban rail rail_electric rail_fast ship" oneway="0"/>
    <type id="highway.tertiary_link" priority="5" numLanes="1" speed="22.22" disallow="tram rail_urban rail rail_electric rail_fast ship" oneway="0"/>
    <type id="highway.track" priority="1" numLanes="1" speed="5.56" allow="pedestrian motorcycle moped bicycle" oneway="0"/>
    <type id="highway.trunk" priority="13" numLanes="2" speed="27.78" disallow="pedestrian bicycle tram rail_urban rail rail_electric rail_fast ship" oneway="0"/>
    <type id="highway.trunk_link" priority="8" numLanes="1" speed="22.22" disallow="pedestrian bicycle tram rail_urban rail rail_electric rail_fast ship" oneway="0"/>
    <type id="highway.unclassified" priority="4" numLanes="1" speed="13.89" disallow="tram rail_urban rail rail_electric rail_fast ship" oneway="0"/>
    <type id="highway.unsurfaced" priority="1" numLanes="1" speed="8.33" disallow="tram rail_urban rail rail_electric rail_fast ship" oneway="0"/>
    <type id="railway.highspeed" priority="21" numLanes="1" speed="69.44" allow="rail_fast" oneway="1"/>
    <type id="railway.light_rail" priority="19" numLanes="1" speed="27.78" allow="rail_urban" oneway="1"/>
    <type id="railway.preserved" priority="16" numLanes="1" speed="27.78" allow="rail" oneway="1"/>
    <type id="railway.rail" priority="20" numLanes="1" speed="44.44" allow="rail" oneway="1"/>
    <type id="railway.subway" priority="18" numLanes="1" speed="27.78" allow="rail_urban" oneway="1"/>
    <type id="railway.tram" priority="17" numLanes="1" speed="13.89" allow="tram" oneway="1"/>

    <edge id=":1300545156_0" function="internal">
        <lane id=":1300545156_0_0" index="0" disallow="tram rail_urban rail rail_electric rail_fast ship" speed="11.11" length="9.93" shape="963.08,1265.82 965.56,1264.23 967.27,1263.14 969.07,1262.23 971.80,1261.15"/>
    </edge>
    <edge id=":1300545156_1" function="internal">
        <lane id=":1300545156_1_0" index="0" disallow="tram rail_urban rail rail_electric rail_fast ship" speed="8.61" length="10.55" shape="962.05,1258.96 964.32,1260.64 966.71,1261.57 969.20,1261.74 971.80,1261.15"/>
    </edge>
    <edge id=":1300545157_0" function="internal">
        <lane id=":1300545157_0_0" index="0" disallow="tram rail_urban rail rail_electric rail_fast ship" speed="11.11" length="9.07" shape="984.92,1254.36 983.09,1252.37 981.75,1251.04 980.68,1249.55 979.62,1247.12"/>
    </edge>
    <edge id=":1300545157_1" function="internal">
        <lane id=":1300545157_1_0" index="0" disallow="tram rail_urban rail rail_electric rail_fast ship" speed="9.74" length="10.54" shape="977.85,1257.16 979.24,1254.49 979.99,1251.93 980.12,1249.47 979.62,1247.12"/>
    </edge>
    <edge id=":1300545159_0" function="internal">
        <lane id=":1300545159_0_0" index="0" disallow="tram rail_urban rail rail_electric rail_fast ship" speed="6.69" length="7.22" shape="958.17,1252.80 958.55,1254.63 958.34,1256.30 957.55,1257.83 956.17,1259.21"/>
    </edge>
    <edge id=":1300545159_1" function="internal">
        <lane id=":1300545159_1_0" index="0" disallow="tram rail_urban rail rail_electric rail_fast ship" speed="11.11" length="7.21" shape="958.17,1252.80 958.89,1254.81 959.51,1256.16 960.39,1257.34 961.90,1258.82"/>
    </edge>
    <edge id=":1300545163_0" function="internal">
        <lane id=":1300545163_0_0" index="0" disallow="tram rail_urban rail rail_electric rail_fast ship" speed="8.24" length="6.04" shape="979.55,1246.94 979.17,1245.28 979.37,1244.09 979.98,1242.91 980.84,1241.32"/>
    </edge>
    <edge id=":1300545163_1" function="internal">
        <lane id=":1300545163_1_0" index="0" disallow="tram rail_urban rail rail_electric rail_fast ship" speed="11.05" length="6.16" shape="979.55,1246.94 978.92,1245.23 978.35,1244.09 977.53,1243.13 976.15,1241.96"/>
    </edge>
    <edge id=":1300545165_0" function="internal">
        <lane id=":1300545165_0_0" index="0" disallow="tram rail_urban rail rail_electric rail_fast ship" speed="7.39" length="6.65" shape="973.64,1236.03 972.40,1237.53 971.08,1238.59 969.68,1239.20 968.21,1239.37"/>
    </edge>
    <edge id=":1300545165_1" function="internal">
        <lane id=":1300545165_1_0" index="0" disallow="tram rail_urban rail rail_electric rail_fast ship" speed="10.45" length="7.32" shape="975.08,1241.10 973.34,1239.91 971.94,1239.44 970.39,1239.38 968.21,1239.37"/>
    </edge>
    <edge id=":1300545167_0" function="internal">
        <lane id=":1300545167_0_0" index="0" disallow="tram rail_urban rail rail_electric rail_fast ship" speed="7.36" length="6.41" shape="972.01,1261.08 973.35,1260.83 974.79,1261.00 976.34,1261.59 977.99,1262.60"/>
    </edge>
    <edge id=":1300545167_1" function="internal">
        <lane id=":1300545167_1_0" index="0" disallow="tram rail_urban rail rail_electric rail_fast ship" speed="10.02" length="7.02" shape="972.01,1261.08 973.99,1260.42 975.38,1259.88 976.50,1259.01 977.71,1257.38"/>
    </edge>
    <edge id=":1300545169_0" function="internal">
        <lane id=":1300545169_0_0" index="0" disallow="tram rail_urban rail rail_electric rail_fast ship" speed="7.48" length="6.58" shape="966.57,1239.62 965.14,1239.84 963.64,1239.63 962.09,1238.99 960.46,1237.92"/>
    </edge>
    <edge id=":1300545169_1" function="internal">
        <lane id=":1300545169_1_0" index="0" disallow="tram rail_urban rail rail_electric rail_fast ship" speed="9.63" length="6.97" shape="966.57,1239.62 964.55,1240.14 963.10,1240.54 961.91,1241.28 960.68,1242.83"/>
    </edge>
    <edge id=":1300545181_0" function="internal">
        <lane id=":1300545181_0_0" index="0" disallow="tram rail_urban rail rail_electric rail_fast ship" speed="11.11" length="6.67" shape="960.51,1243.09 959.44,1244.75 958.80,1245.96 958.40,1247.26 958.06,1249.20"/>
    </edge>
    <edge id=":1300545181_1" function="internal">
        <lane id=":1300545181_1_0" index="0" disallow="tram rail_urban rail rail_electric rail_fast ship" speed="7.31" length="6.48" shape="955.49,1243.53 956.78,1244.89 957.64,1246.29 958.07,1247.72 958.06,1249.20"/>
    </edge>
    <edge id=":1301396827_0" function="internal">
        <lane id=":1301396827_0_0" index="0" allow="private emergency authority army vip passenger hov taxi bus coach delivery truck trailer motorcycle evehicle custom1 custom2" speed="6.14" length="1.50" shape="1371.49,725.05 1371.85,725.30 1372.13,725.41 1372.44,725.45 1372.88,725.51"/>
        <lane id=":1301396827_0_1" index="1" allow="private emergency authority army vip passenger hov taxi bus coach delivery truck trailer motorcycle evehicle custom1 custom2" speed="19.45" length="0.23" shape="1373.53,722.58 1373.46,722.37"/>
    </edge>
    <edge id=":1301396827_2" function="internal">
        <lane id=":1301396827_2_0" index="0" allow="private emergency authority army vip passenger hov taxi bus coach delivery truck trailer motorcycle evehicle custom1 custom2" speed="25.00" length="37.22" shape="1375.56,720.11 1404.50,743.87"/>
        <lane id=":1301396827_2_1" index="1" allow="private emergency authority army vip passenger hov taxi bus coach delivery truck trailer motorcycle evehicle custom1 custom2" speed="25.00" length="37.22" shape="1377.60,717.65 1406.42,741.31"/>
        <lane id=":1301396827_2_2" index="2" allow="private emergency authority army vip passenger hov taxi bus coach delivery truck trailer motorcycle evehicle custom1 custom2" speed="25.00" length="37.22" shape="1379.63,715.18 1408.35,738.75"/>
        <lane id=":1301396827_2_3" index="3" allow="private emergency authority army vip passenger hov taxi bus coach delivery truck trailer motorcycle evehicle custom1 custom2" speed="25.00" length="37.22" shape="1381.67,712.71 1410.27,736.19"/>
    </edge>
    <edge id=":1301852854_0" function="internal">
        <lane id=":1301852854_0_0" index="0" disallow="tram rail_urban rail rail_electric rail_fast ship" speed="3.65" length="4.67" shape="1204.74,1273.80 1206.17,1273.61 1206.89,1273.07 1206.88,1272.17 1206.16,1270.92"/>
    </edge>
    <edge id=":1301853106_0" function="internal">
        <lane id=":1301853106_0_0" index="0" disallow="tram rail_urban rail rail_electric rail_fast ship" speed="3.65" length="4.67" shape="1202.59,1236.44 1201.18,1236.73 1200.51,1237.32 1200.58,1238.21 1201.39,1239.40"/>
    </edge>
    <edge id=":1301853214_0" function="internal">
        <lane id=":1301853214_0_0" index="0" disallow="tram rail_urban rail rail_electric rail_fast ship" speed="3.65" length="4.67" shape="1074.84,770.37 1075.92,771.33 1076.79,771.52 1077.47,770.93 1077.94,769.57"/>
    </edge>
    <edge id=":1301853256_0" function="internal">
        <lane id=":1301853256_0_0" index="0" disallow="tram rail_urban rail rail_electric rail_fast ship" speed="3.65" length="4.67" shape="1147.29,1241.83 1145.86,1242.02 1145.15,1242.57 1145.16,1243.46 1145.89,1244.71"/>
    </edge>
    <edge id=":1301853296_0" function="internal">
        <lane id=":1301853296_0_0" index="0" disallow="tram rail_urban rail rail_electric rail_fast ship" speed="5.48" length="9.70" shape="1062.35,974.42 1060.01,976.43 1058.28,976.76 1057.16,975.41 1056.65,972.36"/>
    </edge>
    <edge id=":1301853296_1" function="internal">
        <lane id=":1301853296_1_0" index="0" disallow="tram rail_urban rail rail_electric rail_fast ship" speed="11.11" length="19.85" shape="1062.35,974.42 1059.12,977.62 1054.98,981.17 1050.56,984.28 1046.53,986.14"/>
    </edge>
    <edge id=":1301853296_2" function="internal">
        <lane id=":1301853296_2_0" index="0" disallow="tram rail_urban rail rail_electric rail_fast ship" speed="11.11" length="19.33" shape="1062.35,974.42 1059.68,977.97 1057.11,982.58 1055.18,987.45 1054.42,991.75"/>
    </edge>
    <edge id=":1301853296_3" function="internal">
        <lane id=":1301853296_3_0" index="0" disallow="tram rail_urban rail rail_electric rail_fast ship" speed="11.11" length="19.26" shape="1057.61,991.60 1056.65,972.36"/>
    </edge>
    <edge id=":1301853296_4" function="internal">
        <lane id=":1301853296_4_0" index="0" disallow="tram rail_urban rail rail_electric rail_fast ship" speed="7.60" length="14.76" shape="1057.61,991.60 1056.77,988.14 1054.65,986.08 1051.23,985.41 1046.53,986.14"/>
    </edge>
    <edge id=":1301853296_5" function="internal">
        <lane id=":1301853296_5_0" index="0" disallow="tram rail_urban rail rail_electric rail_fast ship" speed="5.62" length="9.55" shape="1048.46,988.86 1051.07,987.43 1052.93,987.44 1054.04,988.88 1054.42,991.75"/>
    </edge>
    <edge id=":1301853296_6" function="internal">
        <lane id=":1301853296_6_0" index="0" disallow="tram rail_urban rail rail_electric rail_fast ship" speed="11.11" length="19.25" shape="1048.46,988.86 1052.25,985.47 1054.87,981.59 1056.34,977.22 1056.65,972.36"/>
    </edge>
    <edge id=":1301853296_7" function="internal">
        <lane id=":1301853296_7_0" index="0" disallow="tram rail_urban rail rail_electric rail_fast ship" speed="9.35" length="16.61" shape="1053.45,972.53 1053.25,977.73 1052.03,981.73 1049.79,984.53 1046.53,986.14"/>
    </edge>
    <edge id=":1301853296_8" function="internal">
        <lane id=":1301853296_8_0" index="0" disallow="tram rail_urban rail rail_electric rail_fast ship" speed="11.11" length="19.24" shape="1053.45,972.53 1054.42,991.75"/>
    </edge>
    <edge id=":1306489630_0" function="internal">
        <lane id=":1306489630_0_0" index="0" disallow="tram rail_urban rail rail_electric rail_fast ship" speed="3.65" length="4.67" shape="848.46,937.05 847.02,937.00 846.22,937.41 846.08,938.30 846.58,939.65"/>
    </edge>
    <edge id=":139686511_0" function="internal">
        <lane id=":139686511_0_0" index="0" allow="private emergency authority army vip passenger hov taxi bus coach delivery truck trailer motorcycle evehicle custom1 custom2" speed="23.61" length="0.41" shape="870.27,291.56 869.83,291.23"/>
        <lane id=":139686511_0_1" index="1" allow="private emergency authority army vip passenger hov taxi bus coach delivery truck trailer motorcycle evehicle custom1 custom2" speed="23.61" length="0.41" shape="868.31,294.09 867.95,293.82"/>
        <lane id=":139686511_0_2" index="2" allow="private emergency authority army vip passenger hov taxi bus coach delivery truck trailer motorcycle evehicle custom1 custom2" speed="23.61" length="0.41" shape="866.35,296.62 866.06,296.40"/>
        <lane id=":139686511_0_3" index="3" allow="private emergency authority army vip passenger hov taxi bus coach delivery truck trailer motorcycle evehicle custom1 custom2" speed="23.61" length="0.41" shape="864.40,299.15 864.18,298.99"/>
    </edge>
    <edge id=":139697083_0" function="internal">
        <lane id=":139697083_0_0" index="0" allow="private emergency authority army vip passenger hov taxi bus coach delivery truck trailer motorcycle evehicle custom1 custom2" speed="23.61" length="0.29" shape="798.27,274.45 798.46,274.60"/>
        <lane id=":139697083_0_1" index="1" allow="private emergency authority army vip passenger hov taxi bus coach delivery truck trailer motorcycle evehicle custom1 custom2" speed="23.61" length="0.29" shape="800.20,271.90 800.42,272.07"/>
        <lane id=":139697083_0_2" index="2" allow="private emergency authority army vip passenger hov taxi bus coach delivery truck trailer motorcycle evehicle custom1 custom2" speed="23.61" length="0.29" shape="802.13,269.34 802.37,269.53"/>
        <lane id=":139697083_0_3" index="3" allow="private emergency authority army vip passenger hov taxi bus coach delivery truck trailer motorcycle evehicle custom1 custom2" speed="23.61" length="0.29" shape="804.05,266.79 804.33,267.00"/>
    </edge>
    <edge id=":139699767_0" function="internal">
        <lane id=":139699767_0_0" index="0" allow="private emergency authority army vip passenger hov taxi bus coach delivery truck trailer motorcycle evehicle custom1 custom2" speed="25.00" length="8.40" shape="1300.28,660.28 1301.78,662.39 1301.84,664.53 1301.88,666.70 1303.34,668.87"/>
        <lane id=":139699767_0_1" index="1" allow="private emergency authority army vip passenger hov taxi bus coach delivery truck trailer motorcycle evehicle custom1 custom2" speed="25.00" length="8.40" shape="1300.28,660.28 1301.97,661.91 1302.86,663.30 1303.72,664.72 1305.37,666.40"/>
        <lane id=":139699767_0_2" index="2" allow="private emergency authority army vip passenger hov taxi bus coach delivery truck trailer motorcycle evehicle custom1 custom2" speed="25.00" length="8.40" shape="1300.28,660.28 1302.30,661.53 1303.87,662.07 1305.44,662.63 1307.41,663.93"/>
        <lane id=":139699767_0_3" index="3" allow="private emergency authority army vip passenger hov taxi bus coach delivery truck trailer motorcycle evehicle custom1 custom2" speed="25.00" length="8.40" shape="1302.24,657.75 1304.28,659.01 1305.87,659.57 1307.45,660.14 1309.44,661.46"/>
        <lane id=":139699767_0_4" index="4" allow="private emergency authority army vip passenger hov taxi bus coach delivery truck trailer motorcycle evehicle custom1 custom2" speed="25.00" length="8.40" shape="1304.19,655.22 1306.26,656.50 1307.87,657.07 1309.46,657.66 1311.48,658.99"/>
        <lane id=":139699767_0_5" index="5" allow="private emergency authority army vip passenger hov taxi bus coach delivery truck trailer motorcycle evehicle custom1 custom2" speed="25.00" length="8.40" shape="1306.15,652.69 1308.24,653.99 1309.86,654.57 1311.48,655.17 1313.52,656.53"/>
    </edge>
    <edge id=":1989618684_0" function="internal">
        <lane id=":1989618684_0_0" index="0" disallow="tram rail_urban rail rail_electric rail_fast ship" speed="7.76" length="8.02" shape="1284.79,1886.57 1286.25,1885.44 1287.99,1884.80 1289.99,1884.66 1292.27,1885.02"/>
    </edge>
    <edge id=":1989618684_1" function="internal">
        <lane id=":1989618684_1_0" index="0" disallow="tram rail_urban rail rail_electric rail_fast ship" speed="7.87" length="7.97" shape="1283.72,1876.83 1284.13,1879.13 1284.06,1881.15 1283.51,1882.90 1282.48,1884.36"/>
    </edge>
    <edge id=":1989618684_2" function="internal">
        <lane id=":1989618684_2_0" index="0" disallow="tram rail_urban rail rail_electric rail_fast ship" speed="9.47" length="12.46" shape="1283.72,1876.83 1284.90,1879.77 1286.72,1882.11 1289.17,1883.87 1292.27,1885.02"/>
    </edge>
    <edge id=":246167354_0" function="internal">
        <lane id=":246167354_0_0" index="0" disallow="tram rail_urban rail rail_electric rail_fast ship" speed="8.00" length="7.90" shape="1290.75,1863.90 1288.40,1864.45 1286.36,1864.53 1284.62,1864.15 1283.18,1863.32"/>
    </edge>
    <edge id=":246167354_1" function="internal">
        <lane id=":246167354_1_0" index="0" disallow="tram rail_urban rail rail_electric rail_fast ship" speed="9.03" length="12.57" shape="1290.75,1863.90 1287.87,1865.23 1285.69,1867.23 1284.22,1869.88 1283.45,1873.20"/>
    </edge>
    <edge id=":246167354_2" function="internal">
        <lane id=":246167354_2_0" index="0" disallow="tram rail_urban rail rail_electric rail_fast ship" speed="8.08" length="8.10" shape="1281.14,1865.79 1282.36,1867.14 1283.16,1868.83 1283.52,1870.85 1283.45,1873.20"/>
    </edge>
    <edge id=":246167375_0" function="internal">
        <lane id=":246167375_0_0" index="0" disallow="tram rail_urban rail rail_electric rail_fast ship" speed="6.74" length="9.28" shape="1050.41,1340.08 1047.87,1340.54 1045.76,1340.14 1044.10,1338.88 1042.86,1336.75"/>
    </edge>
    <edge id=":246167375_1" function="internal">
        <lane id=":246167375_1_0" index="0" disallow="tram rail_urban rail rail_electric rail_fast ship" speed="7.87" length="14.28" shape="1050.41,1340.08 1046.83,1341.82 1044.73,1344.26 1044.11,1347.38 1044.97,1351.19"/>
    </edge>
    <edge id=":246167375_2" function="internal">
        <lane id=":246167375_2_0" index="0" disallow="tram rail_urban rail rail_electric rail_fast ship" speed="6.38" length="8.99" shape="1048.00,1350.14 1047.45,1347.73 1047.83,1345.76 1049.15,1344.22 1051.39,1343.13"/>
    </edge>
    <edge id=":246167375_3" function="internal">
        <lane id=":246167375_3_0" index="0" disallow="tram rail_urban rail rail_electric rail_fast ship" speed="11.11" length="14.34" shape="1048.00,1350.14 1042.86,1336.75"/>
    </edge>
    <edge id=":246167375_4" function="internal">
        <lane id=":246167375_4_0" index="0" disallow="tram rail_urban rail rail_electric rail_fast ship" speed="11.11" length="14.20" shape="1039.89,1337.93 1044.97,1351.19"/>
    </edge>
    <edge id=":246167375_5" function="internal">
        <lane id=":246167375_5_0" index="0" disallow="tram rail_urban rail rail_electric rail_fast ship" speed="8.19" length="14.20" shape="1039.89,1337.93 1041.78,1341.22 1044.33,1343.18 1047.53,1343.82 1051.39,1343.13"/>
    </edge>
    <edge id=":246167379_0" function="internal">
        <lane id=":246167379_0_0" index="0" disallow="tram rail_urban rail rail_electric rail_fast ship" speed="11.11" length="7.88" shape="1004.72,1278.27 1003.07,1276.63 1001.76,1275.69 1000.44,1274.76 998.78,1273.13"/>
    </edge>
    <edge id=":246167379_1" function="internal">
        <lane id=":246167379_1_0" index="0" disallow="tram rail_urban rail rail_electric rail_fast ship" speed="11.11" length="7.50" shape="996.47,1275.71 998.32,1276.96 999.61,1277.79 1000.79,1278.75 1002.30,1280.36"/>
    </edge>
    <edge id=":246167404_0" function="internal">
        <lane id=":246167404_0_0" index="0" disallow="tram rail_urban rail rail_electric rail_fast ship" speed="6.26" length="9.16" shape="1080.94,1159.33 1078.37,1159.62 1076.43,1159.00 1075.14,1157.47 1074.49,1155.03"/>
    </edge>
    <edge id=":246167404_1" function="internal">
        <lane id=":246167404_1_0" index="0" disallow="tram rail_urban rail rail_electric rail_fast ship" speed="11.11" length="15.15" shape="1080.94,1159.33 1077.31,1160.34 1073.68,1161.48 1070.10,1162.76 1066.60,1164.17"/>
    </edge>
    <edge id=":246167404_2" function="internal">
        <lane id=":246167404_2_0" index="0" disallow="tram rail_urban rail rail_electric rail_fast ship" speed="7.73" length="14.89" shape="1080.94,1159.33 1077.08,1160.94 1074.90,1163.36 1074.38,1166.58 1075.54,1170.60"/>
    </edge>
    <edge id=":246167404_3" function="internal">
        <lane id=":246167404_3_0" index="0" disallow="tram rail_urban rail rail_electric rail_fast ship" speed="6.17" length="9.05" shape="1078.46,1169.28 1077.75,1166.84 1078.07,1164.88 1079.40,1163.41 1081.74,1162.43"/>
    </edge>
    <edge id=":246167404_4" function="internal">
        <lane id=":246167404_4_0" index="0" disallow="tram rail_urban rail rail_electric rail_fast ship" speed="11.11" length="14.85" shape="1078.46,1169.28 1077.05,1165.83 1075.91,1162.31 1075.06,1158.71 1074.49,1155.03"/>
    </edge>
    <edge id=":246167404_5" function="internal">
        <lane id=":246167404_5_0" index="0" disallow="tram rail_urban rail rail_electric rail_fast ship" speed="8.18" length="14.66" shape="1078.46,1169.28 1076.27,1165.76 1073.57,1163.73 1070.34,1163.20 1066.60,1164.17"/>
    </edge>
    <edge id=":246167404_6" function="internal">
        <lane id=":246167404_6_0" index="0" disallow="tram rail_urban rail rail_electric rail_fast ship" speed="6.73" length="9.57" shape="1067.86,1167.11 1070.26,1166.51 1072.34,1166.89 1074.10,1168.25 1075.54,1170.60"/>
    </edge>
    <edge id=":246167404_7" function="internal">
        <lane id=":246167404_7_0" index="0" disallow="tram rail_urban rail rail_electric rail_fast ship" speed="11.11" length="14.67" shape="1067.86,1167.11 1071.29,1165.72 1074.71,1164.50 1078.18,1163.41 1081.74,1162.43"/>
    </edge>
    <edge id=":246167404_8" function="internal">
        <lane id=":246167404_8_0" index="0" disallow="tram rail_urban rail rail_electric rail_fast ship" speed="9.22" length="14.90" shape="1067.86,1167.11 1071.14,1165.13 1073.33,1162.46 1074.45,1159.09 1074.49,1155.03"/>
    </edge>
    <edge id=":246167404_9" function="internal">
        <lane id=":246167404_9_0" index="0" disallow="tram rail_urban rail rail_electric rail_fast ship" speed="7.91" length="10.76" shape="1071.31,1155.40 1071.29,1158.36 1070.50,1160.81 1068.93,1162.75 1066.60,1164.17"/>
    </edge>
    <edge id=":246167404_10" function="internal">
        <lane id=":246167404_10_0" index="0" disallow="tram rail_urban rail rail_electric rail_fast ship" speed="11.11" length="15.83" shape="1071.31,1155.40 1071.92,1159.23 1072.87,1163.15 1074.09,1167.00 1075.54,1170.60"/>
    </edge>
    <edge id=":246167404_11" function="internal">
        <lane id=":246167404_11_0" index="0" disallow="tram rail_urban rail rail_electric rail_fast ship" speed="7.80" length="14.85" shape="1071.31,1155.40 1072.37,1159.38 1074.46,1161.88 1077.58,1162.89 1081.74,1162.43"/>
    </edge>
    <edge id=":246167412_0" function="internal">
        <lane id=":246167412_0_0" index="0" disallow="tram rail_urban rail rail_electric rail_fast ship" speed="11.11" length="12.78" shape="1133.58,1120.71 1132.27,1123.85 1130.94,1126.52 1129.40,1129.08 1127.47,1131.89"/>
    </edge>
    <edge id=":246167412_1" function="internal">
        <lane id=":246167412_1_0" index="0" disallow="tram rail_urban rail rail_electric rail_fast ship" speed="8.44" length="13.47" shape="1133.58,1120.71 1132.79,1124.14 1133.20,1127.21 1134.81,1129.93 1137.64,1132.30"/>
    </edge>
    <edge id=":246167412_2" function="internal">
        <lane id=":246167412_2_0" index="0" disallow="tram rail_urban rail rail_electric rail_fast ship" speed="7.01" length="9.02" shape="1139.36,1129.61 1137.45,1128.01 1136.34,1126.18 1136.04,1124.14 1136.56,1121.87"/>
    </edge>
    <edge id=":246167412_3" function="internal">
        <lane id=":246167412_3_0" index="0" disallow="tram rail_urban rail rail_electric rail_fast ship" speed="8.01" length="13.66" shape="1139.36,1129.61 1135.98,1128.06 1132.88,1127.93 1130.04,1129.20 1127.47,1131.89"/>
    </edge>
    <edge id=":246167412_4" function="internal">
        <lane id=":246167412_4_0" index="0" disallow="tram rail_urban rail rail_electric rail_fast ship" speed="6.52" length="8.69" shape="1130.07,1133.75 1131.70,1132.04 1133.51,1131.23 1135.49,1131.32 1137.64,1132.30"/>
    </edge>
    <edge id=":246167412_5" function="internal">
        <lane id=":246167412_5_0" index="0" disallow="tram rail_urban rail rail_electric rail_fast ship" speed="11.11" length="13.58" shape="1130.07,1133.75 1132.06,1130.84 1133.73,1128.04 1135.19,1125.12 1136.56,1121.87"/>
    </edge>
    <edge id=":246167503_0" function="internal">
        <lane id=":246167503_0_0" index="0" disallow="tram rail_urban rail rail_electric rail_fast ship" speed="3.65" length="4.67" shape="1306.80,1247.84 1307.89,1248.78 1308.77,1248.95 1309.43,1248.35 1309.88,1246.98"/>
    </edge>
    <edge id=":246167512_0" function="internal">
        <lane id=":246167512_0_0" index="0" disallow="tram rail_urban rail rail_electric rail_fast ship" speed="11.26" length="9.45" shape="1539.31,946.75 1537.55,948.39 1536.12,949.27 1534.47,949.74 1532.07,950.13"/>
        <lane id=":246167512_0_1" index="1" disallow="tram rail_urban rail rail_electric rail_fast ship" speed="12.24" length="9.45" shape="1539.31,946.75 1537.52,949.08 1536.44,951.00 1535.12,952.43 1532.58,953.29"/>
        <lane id=":246167512_0_2" index="2" disallow="tram rail_urban rail rail_electric rail_fast ship" speed="12.59" length="9.45" shape="1540.66,949.94 1538.68,952.34 1537.40,954.23 1535.85,955.60 1533.08,956.45"/>
    </edge>
    <edge id=":246167562_0" function="internal">