<?xml version="1.0" encoding="UTF-8"?>

<!-- generated on 2023-07-20 11:50:25 by Eclipse SUMO netconvert Version 1.17.0
<configuration xmlns:xsi="http://www.w3.org/2001/XMLSchema-instance" xsi:noNamespaceSchemaLocation="http://sumo.dlr.de/xsd/netconvertConfiguration.xsd">

    <input>
        <sumo-net-file value="osm.net.xml.gz"/>
    </input>

    <output>
        <output-file value="osm.net.xml"/>
        <output.street-names value="true"/>
    </output>

    <processing>
        <geometry.min-radius.fix.railways value="false"/>
        <geometry.max-grade.fix value="false"/>
        <offset.disable-normalization value="true"/>
        <lefthand value="1"/>
    </processing>

    <junctions>
        <no-turnarounds value="true"/>
        <junctions.corner-detail value="5"/>
        <junctions.limit-turn-speed value="5.50"/>
        <rectangular-lane-cut value="0"/>
    </junctions>

    <pedestrian>
        <walkingareas value="0"/>
    </pedestrian>

</configuration>
-->

<net version="1.16" junctionCornerDetail="5" lefthand="true" limitTurnSpeed="5.50" xmlns:xsi="http://www.w3.org/2001/XMLSchema-instance" xsi:noNamespaceSchemaLocation="http://sumo.dlr.de/xsd/net_file.xsd">

    <location netOffset="-374732.63,-151264.08" convBoundary="0.00,0.00,561.92,367.54" origBoundary="103.874007,1.368266,103.879057,1.371591" projParameter="+proj=utm +zone=48 +ellps=WGS84 +datum=WGS84 +units=m +no_defs"/>

    <type id="highway.bridleway" priority="1" numLanes="1" speed="2.78" allow="pedestrian" oneway="1" width="2.00"/>
    <type id="highway.bus_guideway" priority="1" numLanes="1" speed="27.78" allow="bus" oneway="1"/>
    <type id="highway.cycleway" priority="1" numLanes="1" speed="5.56" allow="bicycle" oneway="0" width="1.00"/>
    <type id="highway.footway" priority="1" numLanes="1" speed="2.78" allow="pedestrian" oneway="1" width="2.00"/>
    <type id="highway.ford" priority="1" numLanes="1" speed="2.78" allow="army" oneway="0"/>
    <type id="highway.living_street" priority="2" numLanes="1" speed="2.78" disallow="tram rail_urban rail rail_electric rail_fast ship" oneway="0"/>
    <type id="highway.motorway" priority="14" numLanes="2" speed="39.44" allow="private emergency authority army vip passenger hov taxi bus coach delivery truck trailer motorcycle evehicle custom1 custom2" oneway="1"/>
    <type id="highway.motorway_link" priority="9" numLanes="1" speed="22.22" allow="private emergency authority army vip passenger hov taxi bus coach delivery truck trailer motorcycle evehicle custom1 custom2" oneway="1"/>
    <type id="highway.path" priority="1" numLanes="1" speed="5.56" allow="pedestrian bicycle" oneway="0" width="2.00"/>
    <type id="highway.pedestrian" priority="1" numLanes="1" speed="2.78" allow="pedestrian" oneway="1" width="2.00"/>
    <type id="highway.primary" priority="12" numLanes="2" speed="27.78" disallow="tram rail_urban rail rail_electric rail_fast ship" oneway="0"/>
    <type id="highway.primary_link" priority="7" numLanes="1" speed="22.22" disallow="tram rail_urban rail rail_electric rail_fast ship" oneway="0"/>
    <type id="highway.raceway" priority="15" numLanes="2" speed="83.33" allow="vip" oneway="0"/>
    <type id="highway.residential" priority="3" numLanes="1" speed="13.89" disallow="tram rail_urban rail rail_electric rail_fast ship" oneway="0"/>
    <type id="highway.secondary" priority="11" numLanes="1" speed="27.78" disallow="tram rail_urban rail rail_electric rail_fast ship" oneway="0"/>
    <type id="highway.secondary_link" priority="6" numLanes="1" speed="22.22" disallow="tram rail_urban rail rail_electric rail_fast ship" oneway="0"/>
    <type id="highway.service" priority="1" numLanes="1" speed="5.56" allow="pedestrian delivery bicycle" oneway="0"/>
    <type id="highway.stairs" priority="1" numLanes="1" speed="1.39" allow="pedestrian" oneway="1" width="2.00"/>
    <type id="highway.step" priority="1" numLanes="1" speed="1.39" allow="pedestrian" oneway="1" width="2.00"/>
    <type id="highway.steps" priority="1" numLanes="1" speed="1.39" allow="pedestrian" oneway="1" width="2.00"/>
    <type id="highway.tertiary" priority="10" numLanes="1" speed="22.22" disallow="tram rail_urban rail rail_electric rail_fast ship" oneway="0"/>
    <type id="highway.tertiary_link" priority="5" numLanes="1" speed="22.22" disallow="tram rail_urban rail rail_electric rail_fast ship" oneway="0"/>
    <type id="highway.track" priority="1" numLanes="1" speed="5.56" allow="pedestrian motorcycle moped bicycle" oneway="0"/>
    <type id="highway.trunk" priority="13" numLanes="2" speed="27.78" disallow="pedestrian bicycle tram rail_urban rail rail_electric rail_fast ship" oneway="0"/>
    <type id="highway.trunk_link" priority="8" numLanes="1" speed="22.22" disallow="pedestrian bicycle tram rail_urban rail rail_electric rail_fast ship" oneway="0"/>
    <type id="highway.unclassified" priority="4" numLanes="1" speed="13.89" disallow="tram rail_urban rail rail_electric rail_fast ship" oneway="0"/>
    <type id="highway.unsurfaced" priority="1" numLanes="1" speed="8.33" disallow="tram rail_urban rail rail_electric rail_fast ship" oneway="0"/>
    <type id="railway.highspeed" priority="21" numLanes="1" speed="69.44" allow="rail_fast" oneway="1"/>
    <type id="railway.light_rail" priority="19" numLanes="1" speed="27.78" allow="rail_urban" oneway="1"/>
    <type id="railway.preserved" priority="16" numLanes="1" speed="27.78" allow="rail" oneway="1"/>
    <type id="railway.rail" priority="20" numLanes="1" speed="44.44" allow="rail" oneway="1"/>
    <type id="railway.subway" priority="18" numLanes="1" speed="27.78" allow="rail_urban" oneway="1"/>
    <type id="railway.tram" priority="17" numLanes="1" speed="13.89" allow="tram" oneway="1"/>

    <edge id=":206261418_0" function="internal">
        <lane id=":206261418_0_0" index="0" disallow="pedestrian bicycle tram rail_urban rail rail_electric rail_fast ship" speed="16.67" length="0.33" shape="233.30,174.58 233.51,174.51"/>
        <lane id=":206261418_0_1" index="1" disallow="pedestrian bicycle tram rail_urban rail rail_electric rail_fast ship" speed="16.67" length="0.33" shape="232.27,171.55 232.58,171.45"/>
        <lane id=":206261418_0_2" index="2" disallow="pedestrian bicycle tram rail_urban rail rail_electric rail_fast ship" speed="16.67" length="0.33" shape="231.24,168.52 231.64,168.39"/>
    </edge>
    <edge id=":206261588_0" function="internal">
        <lane id=":206261588_0_0" index="0" disallow="pedestrian bicycle tram rail_urban rail rail_electric rail_fast ship" speed="16.67" length="0.83" shape="285.67,159.02 285.75,159.00 285.80,158.99 285.86,158.98 285.94,158.97"/>
        <lane id=":206261588_0_1" index="1" disallow="pedestrian bicycle tram rail_urban rail rail_electric rail_fast ship" speed="16.67" length="0.83" shape="284.79,155.94 285.03,155.88 285.19,155.84 285.36,155.81 285.61,155.79"/>
        <lane id=":206261588_0_2" index="2" disallow="pedestrian bicycle tram rail_urban rail rail_electric rail_fast ship" speed="16.67" length="0.83" shape="283.91,152.87 284.31,152.76 284.58,152.69 284.86,152.65 285.27,152.60"/>
    </edge>
    <edge id=":213031644_0" function="internal">
        <lane id=":213031644_0_0" index="0" disallow="tram rail_urban rail rail_electric rail_fast ship" speed="15.28" length="22.78" shape="292.78,243.25 292.23,236.50 292.98,231.68 294.80,227.21 297.46,221.50"/>
        <lane id=":213031644_0_1" index="1" disallow="tram rail_urban rail rail_electric rail_fast ship" speed="15.28" length="23.08" shape="292.78,243.25 291.73,236.30 291.39,231.22 292.13,226.52 294.31,220.71"/>
    </edge>
    <edge id=":213031644_2" function="internal">
        <lane id=":213031644_2_0" index="0" disallow="tram rail_urban rail rail_electric rail_fast ship" speed="16.67" length="23.21" shape="292.78,243.25 288.90,220.29"/>
        <lane id=":213031644_2_1" index="1" disallow="tram rail_urban rail rail_electric rail_fast ship" speed="16.67" length="23.21" shape="289.62,243.73 285.74,220.81"/>
        <lane id=":213031644_2_2" index="2" disallow="tram rail_urban rail rail_electric rail_fast ship" speed="16.67" length="23.21" shape="286.45,244.22 282.58,221.34"/>
        <lane id=":213031644_2_3" index="3" disallow="tram rail_urban rail rail_electric rail_fast ship" speed="16.67" length="23.21" shape="283.29,244.70 279.43,221.86"/>
        <lane id=":213031644_2_4" index="4" disallow="tram rail_urban rail rail_electric rail_fast ship" speed="16.67" length="23.21" shape="280.13,245.19 276.27,222.38"/>
    </edge>
    <edge id=":213031812_0" function="internal">
        <lane id=":213031812_0_0" index="0" disallow="tram rail_urban rail rail_electric rail_fast ship" speed="9.82" length="7.82" shape="261.94,84.58 259.89,83.45 258.40,82.63 257.31,81.51 256.46,79.47"/>
    </edge>
    <edge id=":213031812_1" function="internal">
        <lane id=":213031812_1_0" index="0" disallow="tram rail_urban rail rail_electric rail_fast ship" speed="16.67" length="7.91" shape="258.70,87.04 256.46,79.47"/>
        <lane id=":213031812_1_1" index="1" disallow="tram rail_urban rail rail_electric rail_fast ship" speed="16.67" length="7.91" shape="255.63,87.95 253.39,80.36"/>
        <lane id=":213031812_1_2" index="2" disallow="tram rail_urban rail rail_electric rail_fast ship" speed="16.67" length="7.91" shape="252.56,88.85 250.31,81.26"/>
    </edge>
    <edge id=":213057996_0" function="internal">
        <lane id=":213057996_0_0" index="0" disallow="pedestrian bicycle tram rail_urban rail rail_electric rail_fast ship" speed="13.89" length="47.43" shape="324.23,196.18 334.20,191.74 347.95,186.60 360.98,182.24 368.80,180.16"/>
    </edge>
    <edge id=":213057996_1" function="internal">
        <lane id=":213057996_1_0" index="0" disallow="pedestrian bicycle tram rail_urban rail rail_electric rail_fast ship" speed="13.89" length="56.30" shape="313.42,190.25 368.80,180.16"/>
    </edge>
    <edge id=":213058469_0" function="internal">
        <lane id=":213058469_0_0" index="0" disallow="pedestrian bicycle tram rail_urban rail rail_electric rail_fast ship" speed="13.89" length="8.26" shape="364.98,104.66 362.55,103.92 361.10,102.69 359.63,101.50 357.20,100.89"/>
        <lane id=":213058469_0_1" index="1" disallow="pedestrian bicycle tram rail_urban rail rail_electric rail_fast ship" speed="13.89" length="8.26" shape="364.98,104.66 357.06,104.09"/>
        <lane id=":213058469_0_2" index="2" disallow="pedestrian bicycle tram rail_urban rail rail_electric rail_fast ship" speed="13.89" length="8.26" shape="364.66,107.84 356.92,107.28"/>
        <lane id=":213058469_0_3" index="3" disallow="pedestrian bicycle tram rail_urban rail rail_electric rail_fast ship" speed="13.89" length="8.26" shape="364.66,107.84 362.26,108.11 360.72,109.08 359.18,110.09 356.77,110.48"/>
    </edge>
    <edge id=":213058600_0" function="internal">
        <lane id=":213058600_0_0" index="0" disallow="pedestrian bicycle tram rail_urban rail rail_electric rail_fast ship" speed="13.89" length="6.26" shape="310.07,98.77 308.21,98.72 306.94,98.69 305.67,98.56 303.85,98.22"/>
    </edge>
    <edge id=":213058600_1" function="internal">
        <lane id=":213058600_1_0" index="0" disallow="pedestrian bicycle tram rail_urban rail rail_electric rail_fast ship" speed="13.89" length="5.04" shape="309.93,101.97 304.66,101.97"/>
        <lane id=":213058600_1_1" index="1" disallow="pedestrian bicycle tram rail_urban rail rail_electric rail_fast ship" speed="13.89" length="5.04" shape="309.78,105.17 304.74,105.17"/>
        <lane id=":213058600_1_2" index="2" disallow="pedestrian bicycle tram rail_urban rail rail_electric rail_fast ship" speed="13.89" length="5.04" shape="309.64,108.36 304.81,108.37"/>
    </edge>
    <edge id=":213058728_0" function="internal">
        <lane id=":213058728_0_0" index="0" disallow="pedestrian bicycle tram rail_urban rail rail_electric rail_fast ship" speed="13.89" length="12.60" shape="212.93,115.91 210.53,118.02 208.53,119.73 206.21,121.40 202.84,123.39"/>
    </edge>
    <edge id=":213058728_1" function="internal">
        <lane id=":213058728_1_0" index="0" disallow="pedestrian bicycle tram rail_urban rail rail_electric rail_fast ship" speed="13.89" length="12.62" shape="215.23,119.99 211.51,120.93 208.86,121.29 206.29,121.84 202.84,123.39"/>
        <lane id=":213058728_1_1" index="1" disallow="pedestrian bicycle tram rail_urban rail rail_electric rail_fast ship" speed="13.89" length="12.62" shape="216.22,123.04 212.67,123.92 210.13,124.23 207.68,124.73 204.38,126.20"/>
    </edge>
    <edge id=":213058755_0" function="internal">
        <lane id=":213058755_0_0" index="0" disallow="pedestrian bicycle tram rail_urban rail rail_electric rail_fast ship" speed="13.89" length="7.24" shape="98.76,183.99 96.78,184.80 95.28,185.05 93.83,185.38 92.00,186.41"/>
    </edge>
    <edge id=":229064959_0" function="internal">
        <lane id=":229064959_0_0" index="0" disallow="pedestrian bicycle tram rail_urban rail rail_electric rail_fast ship" speed="16.67" length="0.39" shape="227.65,149.98 227.02,150.16"/>
        <lane id=":229064959_0_1" index="1" disallow="pedestrian bicycle tram rail_urban rail rail_electric rail_fast ship" speed="16.67" length="0.39" shape="228.43,153.08 228.05,153.19"/>
        <lane id=":229064959_0_2" index="2" disallow="pedestrian bicycle tram rail_urban rail rail_electric rail_fast ship" speed="16.67" length="0.39" shape="229.21,156.19 229.09,156.22"/>
    </edge>
    <edge id=":229111159_0" function="internal">
        <lane id=":229111159_0_0" index="0" disallow="pedestrian bicycle tram rail_urban rail rail_electric rail_fast ship" speed="16.67" length="0.54" shape="289.68,135.24 289.42,135.27 289.24,135.30 289.06,135.33 288.80,135.39"/>
        <lane id=":229111159_0_1" index="1" disallow="pedestrian bicycle tram rail_urban rail rail_electric rail_fast ship" speed="16.67" length="0.54" shape="290.04,138.42 289.88,138.44 289.77,138.45 289.66,138.47 289.51,138.51"/>
        <lane id=":229111159_0_2" index="2" disallow="pedestrian bicycle tram rail_urban rail rail_electric rail_fast ship" speed="16.67" length="0.54" shape="290.39,141.60 290.34,141.61 290.30,141.61 290.27,141.62 290.22,141.63"/>
    </edge>
    <edge id=":229182097_0" function="internal">
        <lane id=":229182097_0_0" index="0" disallow="tram rail_urban rail rail_electric rail_fast ship" speed="13.27" length="14.20" shape="259.66,238.31 262.78,240.72 265.21,242.31 266.94,244.27 267.97,247.78"/>
        <lane id=":229182097_0_1" index="1" disallow="tram rail_urban rail rail_electric rail_fast ship" speed="14.30" length="14.20" shape="261.83,235.96 265.41,238.82 268.11,240.79 270.00,243.19 271.13,247.33"/>
    </edge>
    <edge id=":229182097_2" function="internal">
        <lane id=":229182097_2_0" index="0" disallow="tram rail_urban rail rail_electric rail_fast ship" speed="16.67" length="14.18" shape="265.30,234.02 267.97,247.78"/>
        <lane id=":229182097_2_1" index="1" disallow="tram rail_urban rail rail_electric rail_fast ship" speed="16.67" length="14.18" shape="268.44,233.41 271.13,247.33"/>
        <lane id=":229182097_2_2" index="2" disallow="tram rail_urban rail rail_electric rail_fast ship" speed="16.67" length="14.18" shape="271.58,232.79 274.30,246.88"/>
    </edge>
    <edge id=":229186648_0" function="internal">
        <lane id=":229186648_0_0" index="0" disallow="tram rail_urban rail rail_electric rail_fast ship" speed="16.67" length="8.21" shape="224.63,60.24 225.02,62.60 224.91,64.28 224.80,65.97 225.17,68.34"/>
        <lane id=":229186648_0_1" index="1" disallow="tram rail_urban rail rail_electric rail_fast ship" speed="16.67" length="8.21" shape="227.72,59.39 228.11,61.76 228.00,63.45 227.89,65.14 228.26,67.51"/>
        <lane id=":229186648_0_2" index="2" disallow="tram rail_urban rail rail_electric rail_fast ship" speed="16.67" length="8.21" shape="230.80,58.54 231.20,60.92 231.09,62.61 230.98,64.31 231.35,66.69"/>
        <lane id=":229186648_0_3" index="3" disallow="tram rail_urban rail rail_electric rail_fast ship" speed="16.67" length="8.21" shape="230.80,58.54 231.68,60.79 232.64,62.20 233.59,63.61 234.45,65.87"/>
    </edge>
    <edge id=":370490492_0" function="internal">
        <lane id=":370490492_0_0" index="0" disallow="pedestrian bicycle tram rail_urban rail rail_electric rail_fast ship" speed="13.89" length="38.53" shape="192.85,225.02 203.50,222.52 213.61,221.09 222.86,220.72 230.94,221.42"/>
        <lane id=":370490492_0_1" index="1" disallow="pedestrian bicycle tram rail_urban rail rail_electric rail_fast ship" speed="13.89" length="38.58" shape="192.85,225.02 203.44,222.00 213.41,219.43 222.53,217.93 230.55,218.11"/>
    </edge>
    <edge id=":370490492_2" function="internal">
        <lane id=":370490492_2_0" index="0" disallow="pedestrian bicycle tram rail_urban rail rail_electric rail_fast ship" speed="13.89" length="38.67" shape="192.85,225.02 229.73,213.06"/>
        <lane id=":370490492_2_1" index="1" disallow="pedestrian bicycle tram rail_urban rail rail_electric rail_fast ship" speed="13.89" length="38.67" shape="191.98,221.94 228.76,210.02"/>
        <lane id=":370490492_2_2" index="2" disallow="pedestrian bicycle tram rail_urban rail rail_electric rail_fast ship" speed="13.89" length="38.67" shape="191.11,218.86 227.79,206.97"/>
    </edge>
    <edge id=":383483949_0" function="internal">
        <lane id=":383483949_0_0" index="0" disallow="tram rail_urban rail rail_electric rail_fast ship" speed="15.28" length="18.33" shape="228.50,80.90 229.34,86.66 228.79,91.25 227.46,95.10 225.96,98.61"/>
    </edge>
    <edge id=":383483949_1" function="internal">
        <lane id=":383483949_1_0" index="0" disallow="tram rail_urban rail rail_electric rail_fast ship" speed="16.67" length="18.03" shape="228.50,80.90 231.61,98.67"/>
        <lane id=":383483949_1_1" index="1" disallow="tram rail_urban rail rail_electric rail_fast ship" speed="16.67" length="18.03" shape="231.60,80.08 234.70,97.84"/>
        <lane id=":383483949_1_2" index="2" disallow="tram rail_urban rail rail_electric rail_fast ship" speed="16.67" length="18.03" shape="234.69,79.26 237.80,97.01"/>
        <lane id=":383483949_1_3" index="3" disallow="tram rail_urban rail rail_electric rail_fast ship" speed="16.67" length="18.03" shape="237.78,78.44 240.89,96.18"/>
        <lane id=":383483949_1_4" index="4" disallow="tram rail_urban rail rail_electric rail_fast ship" speed="16.67" length="18.03" shape="237.78,78.44 239.40,83.53 240.87,86.90 242.35,90.27 243.98,95.36"/>
    </edge>
    <edge id=":4689524146_0" function="internal">
        <lane id=":4689524146_0_0" index="0" disallow="tram rail_urban rail rail_electric rail_fast ship" speed="16.67" length="8.55" shape="299.02,305.98 299.23,303.43 300.13,301.74 301.00,300.04 301.11,297.51"/>
        <lane id=":4689524146_0_1" index="1" disallow="tram rail_urban rail rail_electric rail_fast ship" speed="16.67" length="8.55" shape="295.84,306.34 296.05,303.83 296.96,302.16 297.83,300.49 297.95,298.00"/>
        <lane id=":4689524146_0_2" index="2" disallow="tram rail_urban rail rail_electric rail_fast ship" speed="16.67" length="8.55" shape="292.66,306.70 292.88,304.22 293.78,302.58 294.66,300.94 294.79,298.49"/>
        <lane id=":4689524146_0_3" index="3" disallow="tram rail_urban rail rail_electric rail_fast ship" speed="16.67" length="8.55" shape="292.66,306.70 291.63,298.97"/>
        <lane id=":4689524146_0_4" index="4" disallow="tram rail_urban rail rail_electric rail_fast ship" speed="16.67" length="8.55" shape="292.66,306.70 291.89,304.39 290.62,303.07 289.32,301.75 288.46,299.46"/>
    </edge>
    <edge id=":4689643060_0" function="internal">
        <lane id=":4689643060_0_0" index="0" disallow="tram rail_urban rail rail_electric rail_fast ship" speed="16.67" length="8.21" shape="275.65,301.59 275.74,304.00 275.42,305.67 275.10,307.33 275.19,309.74"/>
        <lane id=":4689643060_0_1" index="1" disallow="tram rail_urban rail rail_electric rail_fast ship" speed="16.67" length="8.21" shape="278.81,301.14 278.91,303.55 278.59,305.21 278.27,306.88 278.36,309.29"/>
        <lane id=":4689643060_0_2" index="2" disallow="tram rail_urban rail rail_electric rail_fast ship" speed="16.67" length="8.21" shape="281.98,300.69 282.07,303.10 281.76,304.76 281.44,306.43 281.53,308.83"/>
        <lane id=":4689643060_0_3" index="3" disallow="tram rail_urban rail rail_electric rail_fast ship" speed="16.67" length="8.21" shape="281.98,300.69 282.57,303.03 283.34,304.53 284.11,306.04 284.70,308.38"/>
    </edge>
    <edge id=":5952876250_0" function="internal">
        <lane id=":5952876250_0_0" index="0" disallow="pedestrian bicycle tram rail_urban rail rail_electric rail_fast ship" speed="13.89" length="8.21" shape="143.81,237.11 146.19,236.72 147.88,236.82 149.58,236.92 151.96,236.51"/>
        <lane id=":5952876250_0_1" index="1" disallow="pedestrian bicycle tram rail_urban rail rail_electric rail_fast ship" speed="13.89" length="8.21" shape="142.96,234.03 145.34,233.63 147.03,233.74 148.72,233.84 151.09,233.43"/>
        <lane id=":5952876250_0_2" index="2" disallow="pedestrian bicycle tram rail_urban rail rail_electric rail_fast ship" speed="13.89" length="8.21" shape="142.96,234.03 145.20,233.15 146.59,232.20 147.99,231.24 150.22,230.35"/>
    </edge>
    <edge id=":cluster_213057923_229181490_0" function="internal">
        <lane id=":cluster_213057923_229181490_0_0" index="0" disallow="tram rail_urban rail rail_electric rail_fast ship" speed="16.67" length="18.07" shape="286.31,204.67 283.42,187.03"/>
        <lane id=":cluster_213057923_229181490_0_1" index="1" disallow="tram rail_urban rail rail_electric rail_fast ship" speed="16.67" length="18.07" shape="283.17,205.28 280.27,187.55"/>
        <lane id=":cluster_213057923_229181490_0_2" index="2" disallow="tram rail_urban rail rail_electric rail_fast ship" speed="16.67" length="18.07" shape="280.03,205.90 277.11,188.07"/>
        <lane id=":cluster_213057923_229181490_0_3" index="3" disallow="tram rail_urban rail rail_electric rail_fast ship" speed="16.67" length="18.07" shape="276.89,206.52 273.95,188.59"/>
        <lane id=":cluster_213057923_229181490_0_4" index="4" disallow="tram rail_urban rail rail_electric rail_fast ship" speed="16.67" length="18.07" shape="273.74,207.14 270.79,189.11"/>
    </edge>
    <edge id=":cluster_213057923_229181490_5" function="internal">
        <lane id=":cluster_213057923_229181490_5_0" index="0" disallow="pedestrian bicycle tram rail_urban rail rail_electric rail_fast ship" speed="13.89" length="40.98" shape="251.53,206.46 262.31,203.04 272.78,199.62 282.39,196.65 290.62,194.62"/>
        <lane id=":cluster_213057923_229181490_5_1" index="1" disallow="pedestrian bicycle tram rail_urban rail rail_electric rail_fast ship" speed="13.89" length="40.98" shape="250.61,203.39 261.43,199.97 271.97,196.52 281.66,193.53 289.92,191.49"/>
    </edge>
    <edge id=":cluster_213057923_229181490_7" function="internal">
        <lane id=":cluster_213057923_229181490_7_0" index="0" disallow="pedestrian bicycle tram rail_urban rail rail_electric rail_fast ship" speed="12.12" length="30.54" shape="249.69,200.33 261.92,196.39 270.56,193.03 275.63,190.26 277.11,188.07"/>
        <lane id=":cluster_213057923_229181490_7_1" index="1" disallow="pedestrian bicycle tram rail_urban rail rail_electric rail_fast ship" speed="11.54" length="27.59" shape="249.69,200.33 260.56,196.77 268.23,193.63 272.69,190.90 273.95,188.59"/>
        <lane id=":cluster_213057923_229181490_7_2" index="2" disallow="pedestrian bicycle tram rail_urban rail rail_electric rail_fast ship" speed="10.93" length="24.68" shape="249.69,200.33 259.21,197.15 265.90,194.22 269.76,191.54 270.79,189.11"/>
    </edge>
    <edge id=":cluster_213057923_229181490_10" function="internal">
        <lane id=":cluster_213057923_229181490_10_0" index="0" disallow="tram rail_urban rail rail_electric rail_fast ship" speed="16.67" length="19.15" shape="253.30,192.00 255.15,197.37 257.10,200.83 258.96,204.30 260.54,209.74"/>
        <lane id=":cluster_213057923_229181490_10_1" index="1" disallow="tram rail_urban rail rail_electric rail_fast ship" speed="16.67" length="19.15" shape="256.47,191.47 258.31,196.82 260.25,200.26 262.10,203.72 263.68,209.12"/>
        <lane id=":cluster_213057923_229181490_10_2" index="2" disallow="tram rail_urban rail rail_electric rail_fast ship" speed="16.67" length="19.15" shape="259.63,190.95 261.47,196.27 263.40,199.69 265.25,203.13 266.82,208.50"/>
    </edge>
    <edge id=":cluster_213057923_229181490_13" function="internal">
        <lane id=":cluster_213057923_229181490_13_0" index="0" disallow="pedestrian bicycle tram rail_urban rail rail_electric rail_fast ship" speed="11.34" length="7.26" shape="262.80,190.43 265.05,192.73 269.03,193.44"/>
    </edge>
    <edge id=":cluster_213057923_229181490_14" function="internal">
        <lane id=":cluster_213057923_229181490_14_0" index="0" disallow="tram rail_urban rail rail_electric rail_fast ship" speed="4.29" length="3.75" shape="265.97,189.91 267.47,191.52 268.78,191.92 268.92,191.82"/>
    </edge>
    <edge id=":cluster_213057923_229181490_15" function="internal">
        <lane id=":cluster_213057923_229181490_15_0" index="0" disallow="pedestrian bicycle tram rail_urban rail rail_electric rail_fast ship" speed="11.34" length="21.06" shape="269.03,193.44 270.33,193.68 278.61,193.26 289.92,191.49"/>
    </edge>
    <edge id=":cluster_213057923_229181490_16" function="internal">
        <lane id=":cluster_213057923_229181490_16_0" index="0" disallow="tram rail_urban rail rail_electric rail_fast ship" speed="4.29" length="3.39" shape="268.92,191.82 269.89,191.12 270.79,189.11"/>
    </edge>
    <edge id=":cluster_213058667_229181429_0" function="internal">
        <lane id=":cluster_213058667_229181429_0_0" index="0" disallow="pedestrian bicycle tram rail_urban rail rail_electric rail_fast ship" speed="13.89" length="44.87" shape="273.56,104.09 261.79,106.15 249.71,109.16 238.64,112.40 229.90,115.20"/>
        <lane id=":cluster_213058667_229181429_0_1" index="1" disallow="pedestrian bicycle tram rail_urban rail rail_electric rail_fast ship" speed="13.89" length="44.87" shape="273.99,107.26 262.29,109.31 250.37,112.28 239.46,115.49 230.79,118.27"/>
    </edge>
    <edge id=":cluster_213058667_229181429_2" function="internal">
        <lane id=":cluster_213058667_229181429_2_0" index="0" disallow="pedestrian bicycle tram rail_urban rail rail_electric rail_fast ship" speed="11.91" length="34.27" shape="274.41,110.43 260.43,112.59 250.63,115.15 245.01,118.10 243.58,121.46"/>
        <lane id=":cluster_213058667_229181429_2_1" index="1" disallow="pedestrian bicycle tram rail_urban rail rail_electric rail_fast ship" speed="11.37" length="31.13" shape="274.41,110.43 261.82,112.41 253.01,114.81 247.97,117.63 246.72,120.88"/>
        <lane id=":cluster_213058667_229181429_2_2" index="2" disallow="pedestrian bicycle tram rail_urban rail rail_electric rail_fast ship" speed="10.80" length="27.99" shape="274.41,110.43 263.21,112.23 255.38,114.47 250.94,117.16 249.87,120.29"/>
    </edge>
    <edge id=":cluster_213058667_229181429_5" function="internal">
        <lane id=":cluster_213058667_229181429_5_0" index="0" disallow="tram rail_urban rail rail_electric rail_fast ship" speed="16.67" length="18.13" shape="270.05,116.55 268.40,111.40 266.49,108.13 264.48,104.90 262.48,99.83"/>
        <lane id=":cluster_213058667_229181429_5_1" index="1" disallow="tram rail_urban rail rail_electric rail_fast ship" speed="16.67" length="18.13" shape="266.91,117.13 265.27,112.07 263.38,108.88 261.38,105.71 259.40,100.74"/>
        <lane id=":cluster_213058667_229181429_5_2" index="2" disallow="tram rail_urban rail rail_electric rail_fast ship" speed="16.67" length="18.13" shape="263.76,117.72 262.14,112.75 260.27,109.62 258.28,106.52 256.33,101.64"/>
    </edge>
    <edge id=":cluster_213058667_229181429_8" function="internal">
        <lane id=":cluster_213058667_229181429_8_0" index="0" disallow="pedestrian bicycle tram rail_urban rail rail_electric rail_fast ship" speed="11.44" length="11.47" shape="260.61,118.30 257.45,114.37 251.08,113.52"/>
    </edge>
    <edge id=":cluster_213058667_229181429_9" function="internal">
        <lane id=":cluster_213058667_229181429_9_0" index="0" disallow="tram rail_urban rail rail_electric rail_fast ship" speed="5.12" length="7.92" shape="257.46,118.89 255.04,116.39 252.96,115.79 251.24,117.10 251.19,117.21"/>
    </edge>
    <edge id=":cluster_213058667_229181429_15" function="internal">
        <lane id=":cluster_213058667_229181429_15_0" index="0" disallow="pedestrian bicycle tram rail_urban rail rail_electric rail_fast ship" speed="11.44" length="20.88" shape="251.08,113.52 250.97,113.51 241.86,115.04 230.79,118.27"/>
    </edge>
    <edge id=":cluster_213058667_229181429_16" function="internal">
        <lane id=":cluster_213058667_229181429_16_0" index="0" disallow="tram rail_urban rail rail_electric rail_fast ship" speed="5.12" length="3.35" shape="251.19,117.21 249.87,120.29"/>
    </edge>
    <edge id=":cluster_213058667_229181429_10" function="internal">
        <lane id=":cluster_213058667_229181429_10_0" index="0" disallow="tram rail_urban rail rail_electric rail_fast ship" speed="16.67" length="15.47" shape="234.15,108.15 237.29,122.63"/>
        <lane id=":cluster_213058667_229181429_10_1" index="1" disallow="tram rail_urban rail rail_electric rail_fast ship" speed="16.67" length="15.47" shape="237.22,107.25 240.43,122.04"/>