<?xml version="1.0" encoding="UTF-8"?>

<!-- generated on 2023-07-17 14:44:26 by Eclipse SUMO netconvert Version 1.17.0
<configuration xmlns:xsi="http://www.w3.org/2001/XMLSchema-instance" xsi:noNamespaceSchemaLocation="http://sumo.dlr.de/xsd/netconvertConfiguration.xsd">

    <input>
        <sumo-net-file value="osm.net.xml.gz"/>
    </input>

    <output>
        <output-file value="osm.net.xml"/>
        <output.street-names value="true"/>
    </output>

    <processing>
        <geometry.min-radius.fix.railways value="false"/>
        <geometry.max-grade.fix value="false"/>
        <offset.disable-normalization value="true"/>
        <lefthand value="0"/>
    </processing>

    <junctions>
        <no-turnarounds value="true"/>
        <junctions.corner-detail value="5"/>
        <junctions.limit-turn-speed value="5.50"/>
        <rectangular-lane-cut value="0"/>
    </junctions>

    <pedestrian>
        <walkingareas value="0"/>
    </pedestrian>

</configuration>
-->

<net version="1.16" junctionCornerDetail="5" limitTurnSpeed="5.50" xmlns:xsi="http://www.w3.org/2001/XMLSchema-instance" xsi:noNamespaceSchemaLocation="http://sumo.dlr.de/xsd/net_file.xsd">

    <location netOffset="-367596.48,-145940.18" convBoundary="0.00,0.00,625.12,753.89" origBoundary="103.809894,1.320078,103.815512,1.326899" projParameter="+proj=utm +zone=48 +ellps=WGS84 +datum=WGS84 +units=m +no_defs"/>

    <type id="highway.bridleway" priority="1" numLanes="1" speed="2.78" allow="pedestrian" oneway="1" width="2.00"/>
    <type id="highway.bus_guideway" priority="1" numLanes="1" speed="27.78" allow="bus" oneway="1"/>
    <type id="highway.cycleway" priority="1" numLanes="1" speed="5.56" allow="bicycle" oneway="0" width="1.00"/>
    <type id="highway.footway" priority="1" numLanes="1" speed="2.78" allow="pedestrian" oneway="1" width="2.00"/>
    <type id="highway.ford" priority="1" numLanes="1" speed="2.78" allow="army" oneway="0"/>
    <type id="highway.living_street" priority="2" numLanes="1" speed="2.78" disallow="tram rail_urban rail rail_electric rail_fast ship" oneway="0"/>
    <type id="highway.motorway" priority="14" numLanes="2" speed="39.44" allow="private emergency authority army vip passenger hov taxi bus coach delivery truck trailer motorcycle evehicle custom1 custom2" oneway="1"/>
    <type id="highway.motorway_link" priority="9" numLanes="1" speed="22.22" allow="private emergency authority army vip passenger hov taxi bus coach delivery truck trailer motorcycle evehicle custom1 custom2" oneway="1"/>
    <type id="highway.path" priority="1" numLanes="1" speed="5.56" allow="pedestrian bicycle" oneway="0" width="2.00"/>
    <type id="highway.pedestrian" priority="1" numLanes="1" speed="2.78" allow="pedestrian" oneway="1" width="2.00"/>
    <type id="highway.primary" priority="12" numLanes="2" speed="27.78" disallow="tram rail_urban rail rail_electric rail_fast ship" oneway="0"/>
    <type id="highway.primary_link" priority="7" numLanes="1" speed="22.22" disallow="tram rail_urban rail rail_electric rail_fast ship" oneway="0"/>
    <type id="highway.raceway" priority="15" numLanes="2" speed="83.33" allow="vip" oneway="0"/>
    <type id="highway.residential" priority="3" numLanes="1" speed="13.89" disallow="tram rail_urban rail rail_electric rail_fast ship" oneway="0"/>
    <type id="highway.secondary" priority="11" numLanes="1" speed="27.78" disallow="tram rail_urban rail rail_electric rail_fast ship" oneway="0"/>
    <type id="highway.secondary_link" priority="6" numLanes="1" speed="22.22" disallow="tram rail_urban rail rail_electric rail_fast ship" oneway="0"/>
    <type id="highway.service" priority="1" numLanes="1" speed="5.56" allow="pedestrian delivery bicycle" oneway="0"/>
    <type id="highway.stairs" priority="1" numLanes="1" speed="1.39" allow="pedestrian" oneway="1" width="2.00"/>
    <type id="highway.step" priority="1" numLanes="1" speed="1.39" allow="pedestrian" oneway="1" width="2.00"/>
    <type id="highway.steps" priority="1" numLanes="1" speed="1.39" allow="pedestrian" oneway="1" width="2.00"/>
    <type id="highway.tertiary" priority="10" numLanes="1" speed="22.22" disallow="tram rail_urban rail rail_electric rail_fast ship" oneway="0"/>
    <type id="highway.tertiary_link" priority="5" numLanes="1" speed="22.22" disallow="tram rail_urban rail rail_electric rail_fast ship" oneway="0"/>
    <type id="highway.track" priority="1" numLanes="1" speed="5.56" allow="pedestrian motorcycle moped bicycle" oneway="0"/>
    <type id="highway.trunk" priority="13" numLanes="2" speed="27.78" disallow="pedestrian bicycle tram rail_urban rail rail_electric rail_fast ship" oneway="0"/>
    <type id="highway.trunk_link" priority="8" numLanes="1" speed="22.22" disallow="pedestrian bicycle tram rail_urban rail rail_electric rail_fast ship" oneway="0"/>
    <type id="highway.unclassified" priority="4" numLanes="1" speed="13.89" disallow="tram rail_urban rail rail_electric rail_fast ship" oneway="0"/>
    <type id="highway.unsurfaced" priority="1" numLanes="1" speed="8.33" disallow="tram rail_urban rail rail_electric rail_fast ship" oneway="0"/>
    <type id="railway.highspeed" priority="21" numLanes="1" speed="69.44" allow="rail_fast" oneway="1"/>
    <type id="railway.light_rail" priority="19" numLanes="1" speed="27.78" allow="rail_urban" oneway="1"/>
    <type id="railway.preserved" priority="16" numLanes="1" speed="27.78" allow="rail" oneway="1"/>
    <type id="railway.rail" priority="20" numLanes="1" speed="44.44" allow="rail" oneway="1"/>
    <type id="railway.subway" priority="18" numLanes="1" speed="27.78" allow="rail_urban" oneway="1"/>
    <type id="railway.tram" priority="17" numLanes="1" speed="13.89" allow="tram" oneway="1"/>

    <edge id=":10685252635_0" function="internal">
        <lane id=":10685252635_0_0" index="0" disallow="tram rail_urban rail rail_electric rail_fast ship" speed="3.65" length="4.67" shape="323.25,552.18 321.96,551.52 321.47,550.78 321.77,549.94 322.87,549.00"/>
    </edge>
    <edge id=":175296095_0" function="internal">
        <lane id=":175296095_0_0" index="0" disallow="pedestrian bicycle tram rail_urban rail rail_electric rail_fast ship" speed="19.44" length="0.34" shape="383.23,349.48 383.15,349.05"/>
        <lane id=":175296095_0_1" index="1" disallow="pedestrian bicycle tram rail_urban rail rail_electric rail_fast ship" speed="19.44" length="0.34" shape="386.36,348.83 386.30,348.49"/>
        <lane id=":175296095_0_2" index="2" disallow="pedestrian bicycle tram rail_urban rail rail_electric rail_fast ship" speed="19.44" length="0.34" shape="389.50,348.17 389.45,347.94"/>
    </edge>
    <edge id=":1773495422_0" function="internal">
        <lane id=":1773495422_0_0" index="0" disallow="pedestrian bicycle tram rail_urban rail rail_electric rail_fast ship" speed="13.89" length="0.37" shape="379.65,240.01 379.65,239.95 379.64,239.91 379.63,239.88 379.62,239.82"/>
        <lane id=":1773495422_0_1" index="1" disallow="pedestrian bicycle tram rail_urban rail rail_electric rail_fast ship" speed="13.89" length="0.37" shape="382.83,239.62 382.81,239.46 382.79,239.35 382.77,239.24 382.73,239.08"/>
    </edge>
    <edge id=":1773495429_0" function="internal">
        <lane id=":1773495429_0_0" index="0" disallow="pedestrian bicycle tram rail_urban rail rail_electric rail_fast ship" speed="13.89" length="7.47" shape="381.74,254.44 380.50,246.99"/>
        <lane id=":1773495429_0_1" index="1" disallow="pedestrian bicycle tram rail_urban rail rail_electric rail_fast ship" speed="13.89" length="7.47" shape="384.89,253.90 383.67,246.61"/>
    </edge>
    <edge id=":1773495429_2" function="internal">
        <lane id=":1773495429_2_0" index="0" disallow="pedestrian bicycle tram rail_urban rail rail_electric rail_fast ship" speed="9.82" length="7.43" shape="377.75,253.59 379.07,251.80 380.02,250.50 380.52,249.10 380.50,246.99"/>
    </edge>
    <edge id=":1773495447_0" function="internal">
        <lane id=":1773495447_0_0" index="0" disallow="pedestrian bicycle tram rail_urban rail rail_electric rail_fast ship" speed="9.06" length="14.60" shape="345.58,252.53 347.06,256.54 349.18,259.44 351.93,261.22 355.32,261.88"/>
    </edge>
    <edge id=":1773495447_1" function="internal">
        <lane id=":1773495447_1_0" index="0" disallow="pedestrian bicycle tram rail_urban rail rail_electric rail_fast ship" speed="13.89" length="13.45" shape="345.58,252.53 347.00,256.30 348.60,258.66 350.16,261.03 351.43,264.84"/>
        <lane id=":1773495447_1_1" index="1" disallow="pedestrian bicycle tram rail_urban rail rail_electric rail_fast ship" speed="13.89" length="13.45" shape="345.58,252.53 348.30,265.50"/>
        <lane id=":1773495447_1_2" index="2" disallow="pedestrian bicycle tram rail_urban rail rail_electric rail_fast ship" speed="13.89" length="13.45" shape="342.47,253.31 345.17,266.16"/>
        <lane id=":1773495447_1_3" index="3" disallow="pedestrian bicycle tram rail_urban rail rail_electric rail_fast ship" speed="13.89" length="13.45" shape="342.47,253.31 342.91,257.26 342.36,260.05 341.75,262.85 342.04,266.83"/>
    </edge>
    <edge id=":1842846124_0" function="internal">
        <lane id=":1842846124_0_0" index="0" disallow="tram rail_urban rail rail_electric rail_fast ship" speed="3.65" length="4.67" shape="305.38,299.46 304.73,300.75 303.99,301.25 303.14,300.95 302.20,299.86"/>
    </edge>
    <edge id=":241824678_0" function="internal">
        <lane id=":241824678_0_0" index="0" disallow="pedestrian bicycle tram rail_urban rail rail_electric rail_fast ship" speed="13.89" length="0.60" shape="514.13,374.19 514.37,374.09 514.55,374.04 514.72,373.99 514.99,373.94"/>
        <lane id=":241824678_0_1" index="1" disallow="pedestrian bicycle tram rail_urban rail rail_electric rail_fast ship" speed="13.89" length="0.60" shape="515.30,377.17 515.38,377.14 515.44,377.12 515.50,377.10 515.58,377.09"/>
    </edge>
    <edge id=":241824686_0" function="internal">
        <lane id=":241824686_0_0" index="0" disallow="pedestrian bicycle tram rail_urban rail rail_electric rail_fast ship" speed="6.34" length="9.04" shape="372.04,331.44 369.63,332.13 368.09,333.42 367.41,335.32 367.59,337.82"/>
        <lane id=":241824686_0_1" index="1" disallow="pedestrian bicycle tram rail_urban rail rail_electric rail_fast ship" speed="7.17" length="11.88" shape="372.04,331.44 368.24,332.34 365.72,333.82 364.46,335.87 364.47,338.51"/>
    </edge>
    <edge id=":241824686_2" function="internal">
        <lane id=":241824686_2_0" index="0" disallow="pedestrian bicycle tram rail_urban rail rail_electric rail_fast ship" speed="13.89" length="21.25" shape="372.04,331.44 351.28,334.69"/>
        <lane id=":241824686_2_1" index="1" disallow="pedestrian bicycle tram rail_urban rail rail_electric rail_fast ship" speed="13.89" length="21.25" shape="371.61,328.27 350.61,331.54"/>
        <lane id=":241824686_2_2" index="2" disallow="pedestrian bicycle tram rail_urban rail rail_electric rail_fast ship" speed="13.89" length="21.25" shape="371.17,325.10 349.93,328.39"/>
    </edge>
    <edge id=":241824686_5" function="internal">
        <lane id=":241824686_5_0" index="0" disallow="pedestrian bicycle tram rail_urban rail rail_electric rail_fast ship" speed="13.89" length="18.22" shape="363.60,320.01 367.59,337.82"/>
        <lane id=":241824686_5_1" index="1" disallow="pedestrian bicycle tram rail_urban rail rail_electric rail_fast ship" speed="13.89" length="18.22" shape="360.48,320.72 364.47,338.51"/>
        <lane id=":241824686_5_2" index="2" disallow="pedestrian bicycle tram rail_urban rail rail_electric rail_fast ship" speed="13.89" length="18.22" shape="357.36,321.43 361.34,339.20"/>
        <lane id=":241824686_5_3" index="3" disallow="pedestrian bicycle tram rail_urban rail rail_electric rail_fast ship" speed="13.89" length="18.22" shape="354.24,322.14 358.22,339.88"/>
    </edge>
    <edge id=":241824687_0" function="internal">
        <lane id=":241824687_0_0" index="0" disallow="pedestrian bicycle tram rail_urban rail rail_electric rail_fast ship" speed="13.89" length="7.94" shape="327.22,336.91 319.29,337.65"/>
        <lane id=":241824687_0_1" index="1" disallow="pedestrian bicycle tram rail_urban rail rail_electric rail_fast ship" speed="13.89" length="7.94" shape="326.92,333.72 319.02,334.46"/>
        <lane id=":241824687_0_2" index="2" disallow="pedestrian bicycle tram rail_urban rail rail_electric rail_fast ship" speed="13.89" length="7.94" shape="326.63,330.54 318.75,331.27"/>
    </edge>
    <edge id=":241824687_3" function="internal">
        <lane id=":241824687_3_0" index="0" disallow="pedestrian bicycle tram rail_urban rail rail_electric rail_fast ship" speed="9.99" length="9.54" shape="324.60,326.76 323.60,328.28 321.95,330.87 320.22,333.33 319.02,334.46"/>
        <lane id=":241824687_3_1" index="1" disallow="pedestrian bicycle tram rail_urban rail rail_electric rail_fast ship" speed="8.94" length="7.54" shape="324.60,326.76 322.94,328.66 321.41,330.04 320.02,330.91 318.75,331.27"/>
    </edge>
    <edge id=":241824689_0" function="internal">
        <lane id=":241824689_0_0" index="0" disallow="pedestrian bicycle tram rail_urban rail rail_electric rail_fast ship" speed="13.89" length="9.76" shape="198.93,348.38 196.18,348.98 194.32,349.48 192.48,350.06 189.79,350.89"/>
        <lane id=":241824689_0_1" index="1" disallow="pedestrian bicycle tram rail_urban rail rail_electric rail_fast ship" speed="13.89" length="9.76" shape="198.29,345.24 195.46,345.86 193.54,346.38 191.65,346.97 188.88,347.82"/>
        <lane id=":241824689_0_2" index="2" disallow="pedestrian bicycle tram rail_urban rail rail_electric rail_fast ship" speed="13.89" length="9.76" shape="197.65,342.11 194.74,342.74 192.77,343.27 190.82,343.88 187.97,344.75"/>
    </edge>
    <edge id=":241824689_3" function="internal">
        <lane id=":241824689_3_0" index="0" disallow="pedestrian bicycle tram rail_urban rail rail_electric rail_fast ship" speed="8.33" length="9.04" shape="197.65,342.11 194.86,342.47 192.50,342.35 190.59,341.72 189.11,340.61"/>
    </edge>
    <edge id=":241824689_4" function="internal">
        <lane id=":241824689_4_0" index="0" disallow="pedestrian bicycle tram rail_urban rail rail_electric rail_fast ship" speed="6.67" length="12.87" shape="191.46,338.44 193.64,341.56 193.94,344.16 192.35,346.25 188.88,347.82"/>
        <lane id=":241824689_4_1" index="1" disallow="pedestrian bicycle tram rail_urban rail rail_electric rail_fast ship" speed="5.79" length="9.35" shape="191.46,338.44 192.68,340.38 192.50,342.09 190.93,343.54 187.97,344.75"/>
    </edge>
    <edge id=":241824690_0" function="internal">
        <lane id=":241824690_0_0" index="0" disallow="pedestrian bicycle tram rail_urban rail rail_electric rail_fast ship" speed="13.89" length="13.89" shape="145.93,366.69 142.30,368.44 139.86,369.76 137.54,371.27 134.24,373.60"/>
        <lane id=":241824690_0_1" index="1" disallow="pedestrian bicycle tram rail_urban rail rail_electric rail_fast ship" speed="13.89" length="13.89" shape="144.57,363.79 140.78,365.62 138.25,366.99 135.83,368.56 132.40,370.98"/>
    </edge>
    <edge id=":241824690_2" function="internal">
        <lane id=":241824690_2_0" index="0" disallow="pedestrian bicycle tram rail_urban rail rail_electric rail_fast ship" speed="8.06" length="11.96" shape="144.57,363.79 140.98,365.13 137.94,365.48 135.46,364.85 133.53,363.23"/>
    </edge>
    <edge id=":241824690_3" function="internal">
        <lane id=":241824690_3_0" index="0" disallow="pedestrian bicycle tram rail_urban rail rail_electric rail_fast ship" speed="7.23" length="11.81" shape="136.06,361.26 137.17,363.59 136.93,365.99 135.34,368.45 132.40,370.98"/>
    </edge>
    <edge id=":241824702_0" function="internal">
        <lane id=":241824702_0_0" index="0" disallow="pedestrian bicycle tram rail_urban rail rail_electric rail_fast ship" speed="13.89" length="17.38" shape="387.77,294.85 385.64,277.67"/>
        <lane id=":241824702_0_1" index="1" disallow="pedestrian bicycle tram rail_urban rail rail_electric rail_fast ship" speed="13.89" length="17.38" shape="390.95,294.45 388.80,277.14"/>
    </edge>
    <edge id=":241824702_2" function="internal">
        <lane id=":241824702_2_0" index="0" disallow="pedestrian bicycle tram rail_urban rail rail_electric rail_fast ship" speed="13.89" length="17.39" shape="395.20,293.19 393.49,289.98 391.72,286.67 390.10,282.61 388.80,277.14"/>
    </edge>
    <edge id=":241827422_0" function="internal">
        <lane id=":241827422_0_0" index="0" disallow="pedestrian bicycle tram rail_urban rail rail_electric rail_fast ship" speed="13.89" length="9.21" shape="85.52,408.11 78.25,413.59"/>
        <lane id=":241827422_0_1" index="1" disallow="pedestrian bicycle tram rail_urban rail rail_electric rail_fast ship" speed="13.89" length="9.21" shape="83.67,405.50 76.25,411.10"/>
    </edge>
    <edge id=":241827422_2" function="internal">
        <lane id=":241827422_2_0" index="0" disallow="pedestrian bicycle tram rail_urban rail rail_electric rail_fast ship" speed="6.11" length="7.70" shape="83.67,405.50 81.33,406.93 79.39,407.61 77.88,407.54 76.78,406.71"/>
    </edge>
    <edge id=":241827422_3" function="internal">
        <lane id=":241827422_3_0" index="0" disallow="pedestrian bicycle tram rail_urban rail rail_electric rail_fast ship" speed="6.14" length="7.68" shape="79.35,404.81 79.82,406.09 79.46,407.57 78.27,409.24 76.25,411.10"/>
    </edge>
    <edge id=":241827471_0" function="internal">
        <lane id=":241827471_0_0" index="0" disallow="pedestrian bicycle tram rail_urban rail rail_electric rail_fast ship" speed="19.44" length="0.30" shape="378.35,350.11 378.40,350.38"/>
        <lane id=":241827471_0_1" index="1" disallow="pedestrian bicycle tram rail_urban rail rail_electric rail_fast ship" speed="19.44" length="0.30" shape="375.20,350.70 375.26,351.00"/>
        <lane id=":241827471_0_2" index="2" disallow="pedestrian bicycle tram rail_urban rail rail_electric rail_fast ship" speed="19.44" length="0.30" shape="372.06,351.29 372.12,351.61"/>
    </edge>
    <edge id=":241837432_0" function="internal">
        <lane id=":241837432_0_0" index="0" disallow="pedestrian bicycle tram rail_urban rail rail_electric rail_fast ship" speed="19.44" length="6.11" shape="414.59,455.24 414.43,453.47 414.67,452.23 414.90,450.99 414.68,449.24"/>
        <lane id=":241837432_0_1" index="1" disallow="pedestrian bicycle tram rail_urban rail rail_electric rail_fast ship" speed="19.44" length="6.11" shape="417.71,454.52 417.55,452.75 417.79,451.50 418.01,450.25 417.79,448.50"/>
        <lane id=":241837432_0_2" index="2" disallow="pedestrian bicycle tram rail_urban rail rail_electric rail_fast ship" speed="19.44" length="6.11" shape="420.83,453.81 420.66,452.03 420.91,450.77 421.13,449.52 420.91,447.75"/>
        <lane id=":241837432_0_3" index="3" disallow="pedestrian bicycle tram rail_urban rail rail_electric rail_fast ship" speed="19.44" length="6.11" shape="423.95,453.10 423.78,451.31 424.02,450.04 424.24,448.78 424.02,447.00"/>
    </edge>
    <edge id=":241837432_4" function="internal">
        <lane id=":241837432_4_0" index="0" disallow="pedestrian bicycle tram rail_urban rail rail_electric rail_fast ship" speed="8.45" length="5.21" shape="427.07,452.39 426.83,450.90 426.93,449.84 427.35,448.83 428.07,447.46"/>
    </edge>
    <edge id=":241837440_0" function="internal">
        <lane id=":241837440_0_0" index="0" disallow="pedestrian bicycle tram rail_urban rail rail_electric rail_fast ship" speed="19.44" length="18.67" shape="408.99,427.88 404.81,409.33"/>
        <lane id=":241837440_0_1" index="1" disallow="pedestrian bicycle tram rail_urban rail rail_electric rail_fast ship" speed="19.44" length="18.67" shape="412.08,427.05 407.96,408.73"/>
        <lane id=":241837440_0_2" index="2" disallow="pedestrian bicycle tram rail_urban rail rail_electric rail_fast ship" speed="19.44" length="18.67" shape="415.17,426.23 411.10,408.12"/>
        <lane id=":241837440_0_3" index="3" disallow="pedestrian bicycle tram rail_urban rail rail_electric rail_fast ship" speed="19.44" length="18.67" shape="418.26,425.40 414.24,407.52"/>
    </edge>
    <edge id=":241837440_4" function="internal">
        <lane id=":241837440_4_0" index="0" disallow="pedestrian bicycle tram rail_urban rail rail_electric rail_fast ship" speed="6.96" length="10.31" shape="400.80,417.53 403.06,416.59 404.49,414.90 405.07,412.48 404.81,409.33"/>
        <lane id=":241837440_4_1" index="1" disallow="pedestrian bicycle tram rail_urban rail rail_electric rail_fast ship" speed="7.70" length="12.84" shape="400.80,417.53 404.43,416.30 406.84,414.42 408.01,411.90 407.96,408.73"/>
    </edge>
    <edge id=":241837440_6" function="internal">
        <lane id=":241837440_6_0" index="0" disallow="pedestrian bicycle tram rail_urban rail rail_electric rail_fast ship" speed="13.89" length="21.73" shape="400.80,417.53 406.91,416.17 411.03,415.00 415.04,413.46 420.78,410.97"/>
        <lane id=":241837440_6_1" index="1" disallow="pedestrian bicycle tram rail_urban rail rail_electric rail_fast ship" speed="13.89" length="21.73" shape="401.47,420.66 407.76,419.25 412.01,418.05 416.14,416.46 422.06,413.90"/>
        <lane id=":241837440_6_2" index="2" disallow="pedestrian bicycle tram rail_urban rail rail_electric rail_fast ship" speed="13.89" length="21.73" shape="402.14,423.79 408.62,422.34 412.99,421.11 417.24,419.47 423.33,416.83"/>
    </edge>
    <edge id=":241837519_0" function="internal">
        <lane id=":241837519_0_0" index="0" disallow="pedestrian bicycle tram rail_urban rail rail_electric rail_fast ship" speed="6.71" length="9.67" shape="384.01,414.60 384.94,417.25 386.38,418.98 388.34,419.79 390.82,419.66"/>
    </edge>
    <edge id=":241837519_1" function="internal">
        <lane id=":241837519_1_0" index="0" disallow="pedestrian bicycle tram rail_urban rail rail_electric rail_fast ship" speed="13.89" length="18.40" shape="380.88,415.26 384.78,433.24"/>
        <lane id=":241837519_1_1" index="1" disallow="pedestrian bicycle tram rail_urban rail rail_electric rail_fast ship" speed="13.89" length="18.40" shape="377.75,415.93 381.66,433.93"/>
    </edge>
    <edge id=":241837519_3" function="internal">
        <lane id=":241837519_3_0" index="0" disallow="pedestrian bicycle tram rail_urban rail rail_electric rail_fast ship" speed="16.66" length="21.39" shape="370.06,422.82 376.27,422.22 380.51,421.69 384.72,420.95 390.82,419.66"/>
        <lane id=":241837519_3_1" index="1" disallow="pedestrian bicycle tram rail_urban rail rail_electric rail_fast ship" speed="16.66" length="21.39" shape="370.36,426.00 376.68,425.39 381.00,424.86 385.28,424.10 391.49,422.79"/>
        <lane id=":241837519_3_2" index="2" disallow="pedestrian bicycle tram rail_urban rail rail_electric rail_fast ship" speed="16.66" length="21.39" shape="370.66,429.19 377.09,428.57 381.48,428.03 385.84,427.25 392.16,425.92"/>
    </edge>
    <edge id=":241837526_0" function="internal">
        <lane id=":241837526_0_0" index="0" disallow="pedestrian bicycle tram rail_urban rail rail_electric rail_fast ship" speed="13.89" length="14.36" shape="354.88,281.10 358.04,295.05"/>
        <lane id=":241837526_0_1" index="1" disallow="pedestrian bicycle tram rail_urban rail rail_electric rail_fast ship" speed="13.89" length="14.36" shape="351.75,281.76 354.92,295.75"/>
        <lane id=":241837526_0_2" index="2" disallow="pedestrian bicycle tram rail_urban rail rail_electric rail_fast ship" speed="13.89" length="14.36" shape="348.62,282.42 351.80,296.45"/>
        <lane id=":241837526_0_3" index="3" disallow="pedestrian bicycle tram rail_urban rail rail_electric rail_fast ship" speed="13.89" length="14.36" shape="345.49,283.09 348.67,297.15"/>
    </edge>
    <edge id=":241837526_4" function="internal">
        <lane id=":241837526_4_0" index="0" disallow="pedestrian bicycle tram rail_urban rail rail_electric rail_fast ship" speed="13.89" length="14.31" shape="345.49,283.09 346.06,287.49 345.75,290.85 344.82,293.79 343.52,296.95"/>
    </edge>
    <edge id=":241837534_0" function="internal">
        <lane id=":241837534_0_0" index="0" disallow="pedestrian bicycle tram rail_urban rail rail_electric rail_fast ship" speed="13.89" length="15.29" shape="389.02,452.48 392.26,467.50"/>
        <lane id=":241837534_0_1" index="1" disallow="pedestrian bicycle tram rail_urban rail rail_electric rail_fast ship" speed="13.89" length="15.29" shape="385.90,453.17 389.11,468.05"/>
    </edge>
    <edge id=":241837534_2" function="internal">
        <lane id=":241837534_2_0" index="0" disallow="pedestrian bicycle tram rail_urban rail rail_electric rail_fast ship" speed="13.89" length="15.13" shape="381.41,455.37 383.78,457.95 385.98,460.41 387.81,463.53 389.11,468.05"/>
    </edge>
    <edge id=":241837612_0" function="internal">
        <lane id=":241837612_0_0" index="0" disallow="pedestrian bicycle tram rail_urban rail rail_electric rail_fast ship" speed="19.44" length="21.17" shape="321.71,425.35 342.84,424.43"/>
        <lane id=":241837612_0_1" index="1" disallow="pedestrian bicycle tram rail_urban rail rail_electric rail_fast ship" speed="19.44" length="21.17" shape="321.81,428.55 342.96,427.63"/>
        <lane id=":241837612_0_2" index="2" disallow="pedestrian bicycle tram rail_urban rail rail_electric rail_fast ship" speed="19.44" length="21.17" shape="321.92,431.75 343.09,430.83"/>
    </edge>
    <edge id=":241837612_3" function="internal">
        <lane id=":241837612_3_0" index="0" disallow="pedestrian bicycle tram rail_urban rail rail_electric rail_fast ship" speed="16.66" length="21.18" shape="321.92,431.75 328.93,431.96 334.46,432.85 338.92,433.98 342.77,434.94"/>
    </edge>
    <edge id=":241854029_0" function="internal">
        <lane id=":241854029_0_0" index="0" disallow="pedestrian bicycle tram rail_urban rail rail_electric rail_fast ship" speed="13.89" length="15.15" shape="448.65,398.81 462.60,392.70"/>
        <lane id=":241854029_0_1" index="1" disallow="pedestrian bicycle tram rail_urban rail rail_electric rail_fast ship" speed="13.89" length="15.15" shape="449.93,401.75 463.81,395.66"/>
        <lane id=":241854029_0_2" index="2" disallow="pedestrian bicycle tram rail_urban rail rail_electric rail_fast ship" speed="13.89" length="15.15" shape="451.21,404.68 465.02,398.63"/>
    </edge>
    <edge id=":241854029_3" function="internal">
        <lane id=":241854029_3_0" index="0" disallow="pedestrian bicycle tram rail_urban rail rail_electric rail_fast ship" speed="13.89" length="15.80" shape="454.29,408.68 456.03,405.42 457.41,401.84 459.61,398.43 463.81,395.66"/>
        <lane id=":241854029_3_1" index="1" disallow="pedestrian bicycle tram rail_urban rail rail_electric rail_fast ship" speed="13.89" length="15.80" shape="454.29,408.68 456.32,405.84 458.26,403.22 460.91,400.82 465.02,398.63"/>
    </edge>
    <edge id=":241907122_0" function="internal">
        <lane id=":241907122_0_0" index="0" disallow="pedestrian bicycle tram rail_urban rail rail_electric rail_fast ship" speed="8.31" length="14.75" shape="421.57,478.65 420.12,474.74 417.87,472.16 414.82,470.90 410.96,470.97"/>
    </edge>
    <edge id=":241907122_1" function="internal">
        <lane id=":241907122_1_0" index="0" disallow="pedestrian bicycle tram rail_urban rail rail_electric rail_fast ship" speed="19.44" length="14.36" shape="421.57,478.65 420.38,474.57 419.21,471.89 418.03,469.20 416.84,465.12"/>
        <lane id=":241907122_1_1" index="1" disallow="pedestrian bicycle tram rail_urban rail rail_electric rail_fast ship" speed="19.44" length="14.36" shape="424.69,477.94 423.50,473.86 422.33,471.17 421.15,468.49 419.96,464.41"/>
        <lane id=":241907122_1_2" index="2" disallow="pedestrian bicycle tram rail_urban rail rail_electric rail_fast ship" speed="19.44" length="14.36" shape="427.81,477.22 426.62,473.15 425.45,470.46 424.27,467.78 423.08,463.70"/>
        <lane id=":241907122_1_3" index="3" disallow="pedestrian bicycle tram rail_urban rail rail_electric rail_fast ship" speed="19.44" length="14.36" shape="430.93,476.51 429.74,472.43 428.57,469.75 427.39,467.06 426.20,462.99"/>
        <lane id=":241907122_1_4" index="4" disallow="pedestrian bicycle tram rail_urban rail rail_electric rail_fast ship" speed="19.44" length="14.36" shape="430.93,476.51 430.23,472.32 430.13,469.39 430.02,466.46 429.32,462.27"/>
    </edge>
    <edge id=":241907130_0" function="internal">
        <lane id=":241907130_0_0" index="0" disallow="pedestrian bicycle tram rail_urban rail rail_electric rail_fast ship" speed="12.05" length="14.49" shape="399.93,476.05 397.79,479.53 396.44,482.96 395.90,486.32 396.17,489.62"/>
    </edge>
    <edge id=":241907130_1" function="internal">
        <lane id=":241907130_1_0" index="0" disallow="pedestrian bicycle tram rail_urban rail rail_electric rail_fast ship" speed="13.89" length="14.65" shape="393.62,475.24 396.17,489.62"/>
        <lane id=":241907130_1_1" index="1" disallow="pedestrian bicycle tram rail_urban rail rail_electric rail_fast ship" speed="13.89" length="14.65" shape="390.47,475.79 393.03,490.26"/>
    </edge>
    <edge id=":2467719661_0" function="internal">
        <lane id=":2467719661_0_0" index="0" disallow="pedestrian bicycle tram rail_urban rail rail_electric rail_fast ship" speed="13.89" length="9.46" shape="404.91,533.52 405.84,542.95"/>
        <lane id=":2467719661_0_1" index="1" disallow="pedestrian bicycle tram rail_urban rail rail_electric rail_fast ship" speed="13.89" length="9.46" shape="401.73,533.85 402.65,543.25"/>
    </edge>
    <edge id=":2467719661_2" function="internal">