<?xml version="1.0" encoding="UTF-8"?>

<!-- generated on 2023-07-18 14:36:42 by Eclipse SUMO netconvert Version 1.17.0
<configuration xmlns:xsi="http://www.w3.org/2001/XMLSchema-instance" xsi:noNamespaceSchemaLocation="http://sumo.dlr.de/xsd/netconvertConfiguration.xsd">

    <input>
        <sumo-net-file value="osm.net.xml.gz"/>
    </input>

    <output>
        <output-file value="osm.net.xml"/>
        <output.street-names value="true"/>
    </output>

    <processing>
        <geometry.min-radius.fix.railways value="false"/>
        <geometry.max-grade.fix value="false"/>
        <offset.disable-normalization value="true"/>
        <lefthand value="1"/>
    </processing>

    <junctions>
        <no-turnarounds value="true"/>
        <junctions.corner-detail value="5"/>
        <junctions.limit-turn-speed value="5.50"/>
        <rectangular-lane-cut value="0"/>
    </junctions>

    <pedestrian>
        <walkingareas value="0"/>
    </pedestrian>

</configuration>
-->

<net version="1.16" junctionCornerDetail="5" lefthand="true" limitTurnSpeed="5.50" xmlns:xsi="http://www.w3.org/2001/XMLSchema-instance" xsi:noNamespaceSchemaLocation="http://sumo.dlr.de/xsd/net_file.xsd">

    <location netOffset="-378429.64,-151253.70" convBoundary="0.00,0.00,550.10,1049.06" origBoundary="103.907235,1.368187,103.912167,1.377678" projParameter="+proj=utm +zone=48 +ellps=WGS84 +datum=WGS84 +units=m +no_defs"/>

    <type id="highway.bridleway" priority="1" numLanes="1" speed="2.78" allow="pedestrian" oneway="1" width="2.00"/>
    <type id="highway.bus_guideway" priority="1" numLanes="1" speed="27.78" allow="bus" oneway="1"/>
    <type id="highway.cycleway" priority="1" numLanes="1" speed="5.56" allow="bicycle" oneway="0" width="1.00"/>
    <type id="highway.footway" priority="1" numLanes="1" speed="2.78" allow="pedestrian" oneway="1" width="2.00"/>
    <type id="highway.ford" priority="1" numLanes="1" speed="2.78" allow="army" oneway="0"/>
    <type id="highway.living_street" priority="2" numLanes="1" speed="2.78" disallow="tram rail_urban rail rail_electric rail_fast ship" oneway="0"/>
    <type id="highway.motorway" priority="14" numLanes="2" speed="39.44" allow="private emergency authority army vip passenger hov taxi bus coach delivery truck trailer motorcycle evehicle custom1 custom2" oneway="1"/>
    <type id="highway.motorway_link" priority="9" numLanes="1" speed="22.22" allow="private emergency authority army vip passenger hov taxi bus coach delivery truck trailer motorcycle evehicle custom1 custom2" oneway="1"/>
    <type id="highway.path" priority="1" numLanes="1" speed="5.56" allow="pedestrian bicycle" oneway="0" width="2.00"/>
    <type id="highway.pedestrian" priority="1" numLanes="1" speed="2.78" allow="pedestrian" oneway="1" width="2.00"/>
    <type id="highway.primary" priority="12" numLanes="2" speed="27.78" disallow="tram rail_urban rail rail_electric rail_fast ship" oneway="0"/>
    <type id="highway.primary_link" priority="7" numLanes="1" speed="22.22" disallow="tram rail_urban rail rail_electric rail_fast ship" oneway="0"/>
    <type id="highway.raceway" priority="15" numLanes="2" speed="83.33" allow="vip" oneway="0"/>
    <type id="highway.residential" priority="3" numLanes="1" speed="13.89" disallow="tram rail_urban rail rail_electric rail_fast ship" oneway="0"/>
    <type id="highway.secondary" priority="11" numLanes="1" speed="27.78" disallow="tram rail_urban rail rail_electric rail_fast ship" oneway="0"/>
    <type id="highway.secondary_link" priority="6" numLanes="1" speed="22.22" disallow="tram rail_urban rail rail_electric rail_fast ship" oneway="0"/>
    <type id="highway.service" priority="1" numLanes="1" speed="5.56" allow="pedestrian delivery bicycle" oneway="0"/>
    <type id="highway.stairs" priority="1" numLanes="1" speed="1.39" allow="pedestrian" oneway="1" width="2.00"/>
    <type id="highway.step" priority="1" numLanes="1" speed="1.39" allow="pedestrian" oneway="1" width="2.00"/>
    <type id="highway.steps" priority="1" numLanes="1" speed="1.39" allow="pedestrian" oneway="1" width="2.00"/>
    <type id="highway.tertiary" priority="10" numLanes="1" speed="22.22" disallow="tram rail_urban rail rail_electric rail_fast ship" oneway="0"/>
    <type id="highway.tertiary_link" priority="5" numLanes="1" speed="22.22" disallow="tram rail_urban rail rail_electric rail_fast ship" oneway="0"/>
    <type id="highway.track" priority="1" numLanes="1" speed="5.56" allow="pedestrian motorcycle moped bicycle" oneway="0"/>
    <type id="highway.trunk" priority="13" numLanes="2" speed="27.78" disallow="pedestrian bicycle tram rail_urban rail rail_electric rail_fast ship" oneway="0"/>
    <type id="highway.trunk_link" priority="8" numLanes="1" speed="22.22" disallow="pedestrian bicycle tram rail_urban rail rail_electric rail_fast ship" oneway="0"/>
    <type id="highway.unclassified" priority="4" numLanes="1" speed="13.89" disallow="tram rail_urban rail rail_electric rail_fast ship" oneway="0"/>
    <type id="highway.unsurfaced" priority="1" numLanes="1" speed="8.33" disallow="tram rail_urban rail rail_electric rail_fast ship" oneway="0"/>
    <type id="railway.highspeed" priority="21" numLanes="1" speed="69.44" allow="rail_fast" oneway="1"/>
    <type id="railway.light_rail" priority="19" numLanes="1" speed="27.78" allow="rail_urban" oneway="1"/>
    <type id="railway.preserved" priority="16" numLanes="1" speed="27.78" allow="rail" oneway="1"/>
    <type id="railway.rail" priority="20" numLanes="1" speed="44.44" allow="rail" oneway="1"/>
    <type id="railway.subway" priority="18" numLanes="1" speed="27.78" allow="rail_urban" oneway="1"/>
    <type id="railway.tram" priority="17" numLanes="1" speed="13.89" allow="tram" oneway="1"/>

    <edge id=":174402285-AddedOnRampNode_0" function="internal">
        <lane id=":174402285-AddedOnRampNode_0_0" index="0" allow="private emergency authority army vip passenger hov taxi bus coach delivery truck trailer motorcycle evehicle custom1 custom2" speed="22.22" length="8.00" shape="288.82,830.44 293.09,837.20"/>
        <lane id=":174402285-AddedOnRampNode_0_1" index="1" allow="private emergency authority army vip passenger hov taxi bus coach delivery truck trailer motorcycle evehicle custom1 custom2" speed="22.22" length="8.00" shape="291.52,828.73 295.80,835.49"/>
        <lane id=":174402285-AddedOnRampNode_0_2" index="2" allow="private emergency authority army vip passenger hov taxi bus coach delivery truck trailer motorcycle evehicle custom1 custom2" speed="22.22" length="8.00" shape="294.22,827.01 298.50,833.78"/>
    </edge>
    <edge id=":244985231_0" function="internal">
        <lane id=":244985231_0_0" index="0" allow="private emergency authority army vip passenger hov taxi bus coach delivery truck trailer motorcycle evehicle custom1 custom2" speed="18.05" length="4.84" shape="431.29,959.11 430.13,958.27 429.31,957.74 428.45,957.25 427.21,956.53"/>
    </edge>
    <edge id=":244985231_1" function="internal">
        <lane id=":244985231_1_0" index="0" allow="private emergency authority army vip passenger hov taxi bus coach delivery truck trailer motorcycle evehicle custom1 custom2" speed="22.22" length="4.14" shape="429.39,961.68 425.91,958.80"/>
        <lane id=":244985231_1_1" index="1" allow="private emergency authority army vip passenger hov taxi bus coach delivery truck trailer motorcycle evehicle custom1 custom2" speed="22.22" length="4.14" shape="427.48,964.25 424.28,961.62"/>
        <lane id=":244985231_1_2" index="2" allow="private emergency authority army vip passenger hov taxi bus coach delivery truck trailer motorcycle evehicle custom1 custom2" speed="22.22" length="4.14" shape="425.58,966.82 422.66,964.45"/>
    </edge>
    <edge id=":366653106_0" function="internal">
        <lane id=":366653106_0_0" index="0" disallow="tram rail_urban rail rail_electric rail_fast ship" speed="16.66" length="8.73" shape="276.59,924.56 281.74,917.50"/>
    </edge>
    <edge id=":366653106_1" function="internal">
        <lane id=":366653106_1_0" index="0" allow="private emergency authority army vip passenger hov taxi bus coach delivery truck trailer motorcycle evehicle custom1 custom2" speed="16.66" length="8.91" shape="273.89,922.83 279.09,915.46"/>
        <lane id=":366653106_1_1" index="1" allow="private emergency authority army vip passenger hov taxi bus coach delivery truck trailer motorcycle evehicle custom1 custom2" speed="16.66" length="8.91" shape="271.20,921.11 276.28,913.92"/>
    </edge>
    <edge id=":369516545_0" function="internal">
        <lane id=":369516545_0_0" index="0" allow="private emergency authority army vip passenger hov taxi bus coach delivery truck trailer motorcycle evehicle custom1 custom2" speed="18.05" length="3.10" shape="242.32,743.84 243.50,746.71"/>
    </edge>
    <edge id=":369516545_1" function="internal">
        <lane id=":369516545_1_0" index="0" allow="private emergency authority army vip passenger hov taxi bus coach delivery truck trailer motorcycle evehicle custom1 custom2" speed="22.22" length="2.62" shape="245.33,742.73 246.41,745.38"/>
        <lane id=":369516545_1_1" index="1" allow="private emergency authority army vip passenger hov taxi bus coach delivery truck trailer motorcycle evehicle custom1 custom2" speed="22.22" length="2.62" shape="248.33,741.62 249.32,744.05"/>
        <lane id=":369516545_1_2" index="2" allow="private emergency authority army vip passenger hov taxi bus coach delivery truck trailer motorcycle evehicle custom1 custom2" speed="22.22" length="2.62" shape="251.33,740.52 252.24,742.72"/>
    </edge>
    <edge id=":369530841_0" function="internal">
        <lane id=":369530841_0_0" index="0" allow="private emergency authority army vip passenger hov taxi bus coach delivery truck trailer motorcycle evehicle custom1 custom2" speed="13.89" length="0.25" shape="297.08,746.87 296.96,746.58"/>
        <lane id=":369530841_0_1" index="1" allow="private emergency authority army vip passenger hov taxi bus coach delivery truck trailer motorcycle evehicle custom1 custom2" speed="13.89" length="0.25" shape="294.07,747.96 294.00,747.79"/>
    </edge>
    <edge id=":5977412846_0" function="internal">
        <lane id=":5977412846_0_0" index="0" allow="private emergency authority army vip passenger hov taxi bus coach delivery truck trailer motorcycle evehicle custom1 custom2" speed="13.89" length="7.71" shape="366.46,762.51 367.83,760.75 369.08,759.82 370.40,758.93 371.95,757.30"/>
        <lane id=":5977412846_0_1" index="1" allow="private emergency authority army vip passenger hov taxi bus coach delivery truck trailer motorcycle evehicle custom1 custom2" speed="13.89" length="7.71" shape="366.46,762.51 367.44,760.43 367.81,758.85 368.24,757.31 369.40,755.36"/>
    </edge>

    <edge id="167583163" from="369517492" to="369516545" priority="9" type="highway.motorway_link" spreadType="center" shape="142.50,488.11 157.21,534.41 175.57,578.63 211.59,664.13 242.96,745.50">
        <lane id="167583163_0" index="0" allow="private emergency authority army vip passenger hov taxi bus coach delivery truck trailer motorcycle evehicle custom1 custom2" speed="13.89" length="274.66" shape="142.50,488.11 157.21,534.41 175.57,578.63 211.59,664.13 242.32,743.84">
            <param key="origId" value="167583163"/>
        </lane>
    </edge>
    <edge id="167610764" from="369530841" to="244985705" priority="9" type="highway.motorway_link" spreadType="center" shape="295.53,747.30 255.03,648.68 210.98,541.54 172.29,433.61 148.17,381.19">
        <lane id="167610764_0" index="0" allow="private emergency authority army vip passenger hov taxi bus coach delivery truck trailer motorcycle evehicle custom1 custom2" speed="13.89" length="350.63" shape="296.96,746.58 256.51,648.07 212.47,540.97 173.77,433.00 168.04,420.55">
            <param key="origId" value="167610764"/>
        </lane>
        <lane id="167610764_1" index="1" allow="private emergency authority army vip passenger hov taxi bus coach delivery truck trailer motorcycle evehicle custom1 custom2" speed="13.89" length="350.63" shape="294.00,747.79 253.55,649.29 209.49,542.11 170.81,434.22 165.13,421.88">
            <param key="origId" value="167610764"/>
        </lane>
    </edge>
    <edge id="174402285" from="174402285-AddedOnRampNode" to="378183942" name="Kallang-Paya Lebar Expressway" priority="14" type="highway.motorway" spreadType="center" shape="293.66,832.11 319.75,873.34 344.32,906.65 371.26,937.24 403.56,969.15 422.31,985.28 444.60,1002.60 493.27,1037.41">
        <lane id="174402285_0" index="0" allow="private emergency authority army vip passenger hov taxi bus coach delivery truck trailer motorcycle evehicle custom1 custom2" speed="22.22" length="285.15" shape="293.09,837.20 317.11,875.15 341.83,908.66 368.93,939.44 401.39,971.50 420.28,987.76 442.69,1005.17 491.41,1040.01">
            <param key="origId" value="174402285 718972473"/>
        </lane>
        <lane id="174402285_1" index="1" allow="private emergency authority army vip passenger hov taxi bus coach delivery truck trailer motorcycle evehicle custom1 custom2" speed="22.22" length="285.15" shape="295.80,835.49 319.75,873.34 344.32,906.65 371.26,937.24 403.56,969.15 422.31,985.28 444.60,1002.60 493.27,1037.41">
            <param key="origId" value="174402285 718972473"/>
        </lane>
        <lane id="174402285_2" index="2" allow="private emergency authority army vip passenger hov taxi bus coach delivery truck trailer motorcycle evehicle custom1 custom2" speed="22.22" length="285.15" shape="298.50,833.78 322.39,871.53 346.81,904.64 373.59,935.04 405.73,966.80 424.34,982.80 446.51,1000.03 495.13,1034.81">
            <param key="origId" value="174402285 718972473"/>
        </lane>
        <param key="ref" value="KPE"/>
    </edge>
    <edge id="174402285-AddedOnRampEdge" from="369516545" to="174402285-AddedOnRampNode" name="Kallang-Paya Lebar Expressway" priority="14" type="highway.motorway" spreadType="center" shape="247.32,743.51 268.30,789.47 288.12,826.35 292.31,832.96">
        <lane id="174402285-AddedOnRampEdge_0" index="0" allow="private emergency authority army vip passenger hov taxi bus coach delivery truck trailer motorcycle evehicle custom1 custom2" speed="22.22" length="94.90" acceleration="1" shape="243.50,746.71 264.00,791.61 283.97,828.77 286.12,832.15">
            <param key="origId" value="174402285 718972473"/>
        </lane>
        <lane id="174402285-AddedOnRampEdge_1" index="1" allow="private emergency authority army vip passenger hov taxi bus coach delivery truck trailer motorcycle evehicle custom1 custom2" speed="22.22" length="94.90" shape="246.41,745.38 266.87,790.18 286.74,827.16 288.82,830.44">
            <param key="origId" value="174402285 718972473"/>
        </lane>
        <lane id="174402285-AddedOnRampEdge_2" index="2" allow="private emergency authority army vip passenger hov taxi bus coach delivery truck trailer motorcycle evehicle custom1 custom2" speed="22.22" length="94.90" shape="249.32,744.05 269.73,788.76 289.50,825.54 291.52,828.73">
            <param key="origId" value="174402285 718972473"/>
        </lane>
        <lane id="174402285-AddedOnRampEdge_3" index="3" allow="private emergency authority army vip passenger hov taxi bus coach delivery truck trailer motorcycle evehicle custom1 custom2" speed="22.22" length="94.90" shape="252.24,742.72 272.60,787.33 292.27,823.93 294.22,827.01">
            <param key="origId" value="174402285 718972473"/>
        </lane>
        <param key="ref" value="KPE"/>
    </edge>
    <edge id="265150738" from="366653106" to="369787655" name="Buangkok East Drive" priority="12" type="highway.primary" spreadType="center" shape="264.76,937.10 272.40,929.95 286.40,911.29 296.90,894.97 320.32,859.88 342.11,825.89 349.23,814.79 351.72,810.90 409.07,721.51 460.52,639.36 461.45,632.77">
        <lane id="265150738_0" index="0" disallow="tram rail_urban rail rail_electric rail_fast ship" speed="13.89" length="330.82" shape="281.74,917.50 286.40,911.29 296.90,894.97 320.32,859.88 342.11,825.89 349.23,814.79 351.72,810.90 409.07,721.51 460.52,639.36 460.54,639.23">
            <param key="origId" value="265150738 780407739 167583158 167608631"/>
        </lane>
    </edge>
    <edge id="265150818" from="1789779696" to="369516545" name="Kallang-Paya Lebar Expressway" priority="14" type="highway.motorway" spreadType="center" shape="0.00,0.00 72.00,207.17 106.51,320.03 143.77,439.19 170.56,516.68 193.11,589.71 219.25,662.60 248.78,742.84">
        <lane id="265150818_0" index="0" allow="private emergency authority army vip passenger hov taxi bus coach delivery truck trailer motorcycle evehicle custom1 custom2" speed="22.22" length="782.25" shape="-3.02,1.05 68.96,208.16 103.45,320.98 140.73,440.19 167.52,517.68 190.07,590.72 216.24,663.69 245.33,742.73">
            <param key="origId" value="265150818"/>
        </lane>
        <lane id="265150818_1" index="1" allow="private emergency authority army vip passenger hov taxi bus coach delivery truck trailer motorcycle evehicle custom1 custom2" speed="22.22" length="782.25" shape="-0.00,-0.00 72.00,207.17 106.51,320.03 143.77,439.19 170.56,516.68 193.11,589.71 219.25,662.60 248.33,741.62">
            <param key="origId" value="265150818"/>
        </lane>
        <lane id="265150818_2" index="2" allow="private emergency authority army vip passenger hov taxi bus coach delivery truck trailer motorcycle evehicle custom1 custom2" speed="22.22" length="782.25" shape="3.02,-1.05 75.04,206.18 109.57,319.08 146.81,438.19 173.60,515.68 196.15,588.70 222.26,661.51 251.33,740.52">
            <param key="origId" value="265150818"/>
        </lane>
        <param key="ref" value="KPE"/>
    </edge>
    <edge id="32792553" from="366653106" to="369530841" name="Kallang-Paya Lebar Expressway" priority="9" type="highway.motorway_link" spreadType="center" shape="264.76,937.10 269.51,928.45 281.38,908.47 291.67,892.58 298.58,879.52 305.50,863.84 310.54,846.83 312.40,826.57 312.60,811.90 309.72,789.61 304.32,771.54 295.53,747.30">
        <lane id="32792553_0" index="0" allow="private emergency authority army vip passenger hov taxi bus coach delivery truck trailer motorcycle evehicle custom1 custom2" speed="13.89" length="177.83" shape="279.09,915.46 282.74,909.31 293.05,893.39 300.02,880.22 307.01,864.39 312.12,847.13 314.00,826.65 314.20,811.81 311.29,789.28 305.84,771.04 297.08,746.87">
            <param key="origId" value="32792553 780407740 167583157"/>
        </lane>
        <lane id="32792553_1" index="1" allow="private emergency authority army vip passenger hov taxi bus coach delivery truck trailer motorcycle evehicle custom1 custom2" speed="13.89" length="177.83" shape="276.28,913.92 280.02,907.63 290.29,891.77 297.14,878.82 303.99,863.29 308.96,846.53 310.80,826.49 311.00,811.99 308.15,789.94 302.80,772.04 294.07,747.96">
            <param key="origId" value="32792553 780407740 167583157"/>
        </lane>
    </edge>
    <edge id="33263613" from="369510451" to="369510457" name="Buangkok East Drive" priority="12" type="highway.primary" spreadType="center" shape="61.53,328.29 81.01,378.21 128.66,492.62 172.03,607.95 183.38,644.27 204.13,710.15 234.60,787.89 244.86,817.54 251.37,840.99 255.08,864.97 255.91,885.94 253.37,906.87 245.29,933.14 235.75,954.15 218.57,984.02 199.11,1012.42">
        <lane id="33263613_0" index="0" disallow="tram rail_urban rail rail_electric rail_fast ship" speed="13.89" length="732.85" shape="58.55,329.45 78.04,379.41 125.68,493.80 169.00,608.99 180.33,645.23 201.11,711.22 231.60,789.00 241.80,818.49 248.24,841.66 251.89,865.28 252.70,885.81 250.23,906.20 242.29,932.00 232.90,952.69 215.86,982.32 196.47,1010.61">
            <param key="origId" value="33263613 788728629"/>
        </lane>
        <lane id="33263613_1" index="1" disallow="tram rail_urban rail rail_electric rail_fast ship" speed="13.89" length="732.85" shape="61.53,328.29 81.01,378.21 128.66,492.62 172.03,607.95 183.38,644.27 204.13,710.15 234.60,787.89 244.86,817.54 251.37,840.99 255.08,864.97 255.91,885.94 253.37,906.87 245.29,933.14 235.75,954.15 218.57,984.02 199.11,1012.42">
            <param key="origId" value="33263613 788728629"/>
        </lane>
        <lane id="33263613_2" index="2" disallow="tram rail_urban rail rail_electric rail_fast ship" speed="13.89" length="732.85" shape="64.51,327.13 83.98,377.01 131.64,491.44 175.06,606.91 186.43,643.31 207.15,709.08 237.60,786.78 247.92,816.59 254.50,840.32 258.27,864.66 259.12,886.07 256.51,907.54 248.29,934.28 238.60,955.61 221.28,985.72 201.75,1014.23">
            <param key="origId" value="33263613 788728629"/>
        </lane>
    </edge>
    <edge id="626072444" from="244985237" to="244985231" name="Kallang-Paya Lebar Expressway" priority="14" type="highway.motorway" spreadType="center" shape="550.10,1047.71 501.35,1017.02 427.20,962.05">
        <lane id="626072444_0" index="0" allow="private emergency authority army vip passenger hov taxi bus coach delivery truck trailer motorcycle evehicle custom1 custom2" speed="22.22" length="148.37" shape="552.66,1043.65 504.06,1013.06 431.29,959.11">
            <param key="origId" value="626072444"/>
        </lane>
        <lane id="626072444_1" index="1" allow="private emergency authority army vip passenger hov taxi bus coach delivery truck trailer motorcycle evehicle custom1 custom2" speed="22.22" length="148.37" shape="550.95,1046.36 502.25,1015.70 429.39,961.68">
            <param key="origId" value="626072444"/>
        </lane>
        <lane id="626072444_2" index="2" allow="private emergency authority army vip passenger hov taxi bus coach delivery truck trailer motorcycle evehicle custom1 custom2" speed="22.22" length="148.37" shape="549.25,1049.06 500.45,1018.34 427.48,964.25">
            <param key="origId" value="626072444"/>
        </lane>
        <lane id="626072444_3" index="3" allow="private emergency authority army vip passenger hov taxi bus coach delivery truck trailer motorcycle evehicle custom1 custom2" speed="22.22" length="148.37" shape="547.54,1051.77 498.64,1020.98 425.58,966.82">
            <param key="origId" value="626072444"/>
        </lane>
        <param key="ref" value="KPE"/>
    </edge>
    <edge id="633182132" from="5977412846" to="369787655" priority="9" type="highway.motorway_link" spreadType="center" shape="368.41,759.31 406.07,709.73 455.62,635.74 461.45,632.77">
        <lane id="633182132_0" index="0" allow="private emergency authority army vip passenger hov taxi bus coach delivery truck trailer motorcycle evehicle custom1 custom2" speed="13.89" length="148.41" shape="371.95,757.30 407.37,710.66 456.72,636.98 457.10,636.78">
            <param key="origId" value="633182132"/>
        </lane>
        <lane id="633182132_1" index="1" allow="private emergency authority army vip passenger hov taxi bus coach delivery truck trailer motorcycle evehicle custom1 custom2" speed="13.89" length="148.41" shape="369.40,755.36 404.77,708.80 454.52,634.50 455.65,633.93">
            <param key="origId" value="633182132"/>
        </lane>
    </edge>
    <edge id="652412711" from="1789779763" to="366653106" name="Buangkok East Drive" priority="12" type="highway.primary" spreadType="center" shape="200.80,1035.37 210.65,1020.69 218.86,1008.79 264.76,937.10">
        <lane id="652412711_0" index="0" disallow="tram rail_urban rail rail_electric rail_fast ship" speed="19.44" length="134.20" shape="203.46,1037.15 213.30,1022.49 221.53,1010.56 276.59,924.56">
            <param key="origId" value="652412711"/>
        </lane>
        <lane id="652412711_1" index="1" disallow="tram rail_urban rail rail_electric rail_fast ship" speed="19.44" length="134.20" shape="200.80,1035.37 210.65,1020.69 218.86,1008.79 273.89,922.83">
            <param key="origId" value="652412711"/>
        </lane>
        <lane id="652412711_2" index="2" disallow="tram rail_urban rail rail_electric rail_fast ship" speed="19.44" length="134.20" shape="198.14,1033.59 208.00,1018.89 216.19,1007.02 271.20,921.11">
            <param key="origId" value="652412711"/>
        </lane>
    </edge>
    <edge id="780407737" from="244985231" to="244985705" name="Kallang-Paya Lebar Expressway" priority="14" type="highway.motorway" spreadType="center" shape="426.24,963.33 415.44,953.91 385.72,926.94 359.40,897.79 329.64,856.98 304.00,817.32 284.78,780.41 281.42,773.08 246.36,697.18 221.21,624.92 172.05,477.32 148.17,381.19">
        <lane id="780407737_0" index="0" allow="private emergency authority army vip passenger hov taxi bus coach delivery truck trailer motorcycle evehicle custom1 custom2" speed="22.22" length="609.39" shape="425.91,958.80 417.57,951.52 387.99,924.68 361.89,895.77 332.28,855.17 306.77,815.71 287.66,779.00 284.33,771.74 249.33,695.98 224.24,623.89 175.13,476.43 161.86,423.03">
            <param key="origId" value="780407737 32922167 483100680"/>
        </lane>
        <lane id="780407737_1" index="1" allow="private emergency authority army vip passenger hov taxi bus coach delivery truck trailer motorcycle evehicle custom1 custom2" speed="22.22" length="609.39" shape="424.28,961.62 415.44,953.91 385.72,926.94 359.40,897.79 329.64,856.98 304.00,817.32 284.78,780.41 281.42,773.08 246.36,697.18 221.21,624.92 172.05,477.32 158.76,423.80">
            <param key="origId" value="780407737 32922167 483100680"/>
        </lane>
        <lane id="780407737_2" index="2" allow="private emergency authority army vip passenger hov taxi bus coach delivery truck trailer motorcycle evehicle custom1 custom2" speed="22.22" length="609.39" shape="422.66,964.45 413.31,956.30 383.45,929.20 356.91,899.81 327.00,858.79 301.23,818.93 281.90,781.82 278.51,774.42 243.39,698.38 218.18,625.95 168.97,478.21 155.65,424.57">
            <param key="origId" value="780407737 32922167 483100680"/>
        </lane>
        <param key="ref" value="KPE"/>
    </edge>
    <edge id="780407738" from="244985231" to="5977412846" priority="9" type="highway.motorway_link" spreadType="center" shape="430.06,958.19 424.36,954.88 422.03,950.28 420.60,948.52 395.09,919.38 372.70,893.31 365.54,882.05 354.03,859.37 350.00,845.74 346.85,826.92 347.59,802.62 351.31,791.35 356.51,780.15 363.79,766.87 368.41,759.31">
        <lane id="780407738_0" index="0" allow="private emergency authority army vip passenger hov taxi bus coach delivery truck trailer motorcycle evehicle custom1 custom2" speed="13.89" length="224.67" shape="427.21,956.53 424.36,954.88 422.03,950.28 420.60,948.52 395.09,919.38 372.70,893.31 365.54,882.05 354.03,859.37 350.00,845.74 346.85,826.92 347.59,802.62 351.31,791.35 356.51,780.15 363.79,766.87 366.46,762.51">
            <param key="origId" value="780407738 32818719"/>
        </lane>
    </edge>

    <junction id="174402285-AddedOnRampNode" type="priority" x="293.66" y="832.11" incLanes="174402285-AddedOnRampEdge_0 174402285-AddedOnRampEdge_1 174402285-AddedOnRampEdge_2 174402285-AddedOnRampEdge_3" intLanes=":174402285-AddedOnRampNode_0_0 :174402285-AddedOnRampNode_0_1 :174402285-AddedOnRampNode_0_2" shape="299.85,832.92 291.74,838.06 289.42,835.94 287.09,835.13 285.92,834.39 284.76,833.01 295.58,826.16">
        <request index="0" response="000" foes="000" cont="0"/>
        <request index="1" response="000" foes="000" cont="0"/>
        <request index="2" response="000" foes="000" cont="0"/>
    </junction>
    <junction id="1789779696" type="dead_end" x="0.00" y="0.00" incLanes="" intLanes="" shape="4.53,-1.58 -4.53,1.58"/>
    <junction id="1789779763" type="dead_end" x="200.80" y="1035.37" incLanes="" intLanes="" shape="196.81,1032.70 204.79,1038.04"/>
    <junction id="244985231" type="priority" x="426.24" y="963.33" incLanes="626072444_0 626072444_1 626072444_2 626072444_3" intLanes=":244985231_0_0 :244985231_1_0 :244985231_1_1 :244985231_1_2" shape="432.25,957.82 424.62,968.11 421.85,965.87 428.00,955.15 429.62,956.07 430.18,956.40 430.73,956.75 431.38,957.19">
        <request index="0" response="0000" foes="0000" cont="0"/>
        <request index="1" response="0000" foes="0000" cont="0"/>
        <request index="2" response="0000" foes="0000" cont="0"/>
        <request index="3" response="0000" foes="0000" cont="0"/>
    </junction>
    <junction id="244985237" type="dead_end" x="549.25" y="1049.06" incLanes="" intLanes="" shape="546.69,1053.13 553.51,1042.29"/>
    <junction id="244985705" type="dead_end" x="148.17" y="381.19" incLanes="167610764_0 167610764_1 780407737_0 780407737_1 780407737_2" intLanes="" shape="169.49,419.88 163.68,422.55 163.41,422.64 154.10,424.96 148.74,401.55 146.56,387.16 147.54,381.80 151.69,385.47 159.01,398.16"/>
    <junction id="366653106" type="priority" x="264.76" y="937.10" incLanes="652412711_0 652412711_1 652412711_2" intLanes=":366653106_0_0 :366653106_1_0 :366653106_1_1" shape="274.88,913.15 280.49,916.23 280.63,916.32 282.85,918.69 277.94,925.42 269.85,920.25">
        <request index="0" response="000" foes="000" cont="0"/>
        <request index="1" response="000" foes="000" cont="0"/>
        <request index="2" response="000" foes="000" cont="0"/>
    </junction>
    <junction id="369510451" type="dead_end" x="61.53" y="328.29" incLanes="" intLanes="" shape="66.00,326.55 57.06,330.03"/>
    <junction id="369510457" type="dead_end" x="199.11" y="1012.42" incLanes="33263613_0 33263613_1 33263613_2" intLanes="" shape="195.15,1009.71 203.07,1015.13"/>
    <junction id="369516545" type="priority" x="248.78" y="742.84" incLanes="167583163_0 265150818_0 265150818_1 265150818_2" intLanes=":369516545_0_0 :369516545_1_0 :369516545_1_1 :369516545_1_2" shape="253.69,742.05 242.05,747.37 240.82,744.39 252.84,739.96">