<?xml version="1.0" encoding="UTF-8"?>

<!-- generated on 2023-07-19 15:48:04 by Eclipse SUMO netconvert Version 1.17.0
<configuration xmlns:xsi="http://www.w3.org/2001/XMLSchema-instance" xsi:noNamespaceSchemaLocation="http://sumo.dlr.de/xsd/netconvertConfiguration.xsd">

    <input>
        <sumo-net-file value="osm.net.xml.gz"/>
    </input>

    <output>
        <output-file value="osm.net.xml"/>
        <output.street-names value="true"/>
    </output>

    <processing>
        <geometry.min-radius.fix.railways value="false"/>
        <geometry.max-grade.fix value="false"/>
        <offset.disable-normalization value="true"/>
        <lefthand value="1"/>
    </processing>

    <junctions>
        <no-turnarounds value="true"/>
        <junctions.corner-detail value="5"/>
        <junctions.limit-turn-speed value="5.50"/>
        <rectangular-lane-cut value="0"/>
    </junctions>

    <pedestrian>
        <walkingareas value="0"/>
    </pedestrian>

</configuration>
-->

<net version="1.16" junctionCornerDetail="5" lefthand="true" limitTurnSpeed="5.50" xmlns:xsi="http://www.w3.org/2001/XMLSchema-instance" xsi:noNamespaceSchemaLocation="http://sumo.dlr.de/xsd/net_file.xsd">

    <location netOffset="-362743.91,-150293.45" convBoundary="0.00,0.00,240.36,781.08" origBoundary="103.766261,1.359433,103.768423,1.366497" projParameter="+proj=utm +zone=48 +ellps=WGS84 +datum=WGS84 +units=m +no_defs"/>

    <type id="highway.bridleway" priority="1" numLanes="1" speed="2.78" allow="pedestrian" oneway="1" width="2.00"/>
    <type id="highway.bus_guideway" priority="1" numLanes="1" speed="27.78" allow="bus" oneway="1"/>
    <type id="highway.cycleway" priority="1" numLanes="1" speed="5.56" allow="bicycle" oneway="0" width="1.00"/>
    <type id="highway.footway" priority="1" numLanes="1" speed="2.78" allow="pedestrian" oneway="1" width="2.00"/>
    <type id="highway.ford" priority="1" numLanes="1" speed="2.78" allow="army" oneway="0"/>
    <type id="highway.living_street" priority="2" numLanes="1" speed="2.78" disallow="tram rail_urban rail rail_electric rail_fast ship" oneway="0"/>
    <type id="highway.motorway" priority="14" numLanes="2" speed="39.44" allow="private emergency authority army vip passenger hov taxi bus coach delivery truck trailer motorcycle evehicle custom1 custom2" oneway="1"/>
    <type id="highway.motorway_link" priority="9" numLanes="1" speed="22.22" allow="private emergency authority army vip passenger hov taxi bus coach delivery truck trailer motorcycle evehicle custom1 custom2" oneway="1"/>
    <type id="highway.path" priority="1" numLanes="1" speed="5.56" allow="pedestrian bicycle" oneway="0" width="2.00"/>
    <type id="highway.pedestrian" priority="1" numLanes="1" speed="2.78" allow="pedestrian" oneway="1" width="2.00"/>
    <type id="highway.primary" priority="12" numLanes="2" speed="27.78" disallow="tram rail_urban rail rail_electric rail_fast ship" oneway="0"/>
    <type id="highway.primary_link" priority="7" numLanes="1" speed="22.22" disallow="tram rail_urban rail rail_electric rail_fast ship" oneway="0"/>
    <type id="highway.raceway" priority="15" numLanes="2" speed="83.33" allow="vip" oneway="0"/>
    <type id="highway.residential" priority="3" numLanes="1" speed="13.89" disallow="tram rail_urban rail rail_electric rail_fast ship" oneway="0"/>
    <type id="highway.secondary" priority="11" numLanes="1" speed="27.78" disallow="tram rail_urban rail rail_electric rail_fast ship" oneway="0"/>
    <type id="highway.secondary_link" priority="6" numLanes="1" speed="22.22" disallow="tram rail_urban rail rail_electric rail_fast ship" oneway="0"/>
    <type id="highway.service" priority="1" numLanes="1" speed="5.56" allow="pedestrian delivery bicycle" oneway="0"/>
    <type id="highway.stairs" priority="1" numLanes="1" speed="1.39" allow="pedestrian" oneway="1" width="2.00"/>
    <type id="highway.step" priority="1" numLanes="1" speed="1.39" allow="pedestrian" oneway="1" width="2.00"/>
    <type id="highway.steps" priority="1" numLanes="1" speed="1.39" allow="pedestrian" oneway="1" width="2.00"/>
    <type id="highway.tertiary" priority="10" numLanes="1" speed="22.22" disallow="tram rail_urban rail rail_electric rail_fast ship" oneway="0"/>
    <type id="highway.tertiary_link" priority="5" numLanes="1" speed="22.22" disallow="tram rail_urban rail rail_electric rail_fast ship" oneway="0"/>
    <type id="highway.track" priority="1" numLanes="1" speed="5.56" allow="pedestrian motorcycle moped bicycle" oneway="0"/>
    <type id="highway.trunk" priority="13" numLanes="2" speed="27.78" disallow="pedestrian bicycle tram rail_urban rail rail_electric rail_fast ship" oneway="0"/>
    <type id="highway.trunk_link" priority="8" numLanes="1" speed="22.22" disallow="pedestrian bicycle tram rail_urban rail rail_electric rail_fast ship" oneway="0"/>
    <type id="highway.unclassified" priority="4" numLanes="1" speed="13.89" disallow="tram rail_urban rail rail_electric rail_fast ship" oneway="0"/>
    <type id="highway.unsurfaced" priority="1" numLanes="1" speed="8.33" disallow="tram rail_urban rail rail_electric rail_fast ship" oneway="0"/>
    <type id="railway.highspeed" priority="21" numLanes="1" speed="69.44" allow="rail_fast" oneway="1"/>
    <type id="railway.light_rail" priority="19" numLanes="1" speed="27.78" allow="rail_urban" oneway="1"/>
    <type id="railway.preserved" priority="16" numLanes="1" speed="27.78" allow="rail" oneway="1"/>
    <type id="railway.rail" priority="20" numLanes="1" speed="44.44" allow="rail" oneway="1"/>
    <type id="railway.subway" priority="18" numLanes="1" speed="27.78" allow="rail_urban" oneway="1"/>
    <type id="railway.tram" priority="17" numLanes="1" speed="13.89" allow="tram" oneway="1"/>

    <edge id=":1483517642_0" function="internal">
        <lane id=":1483517642_0_0" index="0" allow="bus bicycle" speed="13.89" length="8.00" shape="116.41,338.33 113.85,330.75"/>
    </edge>
    <edge id=":1483517642_1" function="internal">
        <lane id=":1483517642_1_0" index="0" disallow="pedestrian bicycle tram rail_urban rail rail_electric rail_fast ship" speed="13.89" length="8.54" shape="107.78,332.80 108.10,335.29 107.55,337.10 107.00,338.91 107.31,341.40"/>
        <lane id=":1483517642_1_1" index="1" disallow="pedestrian bicycle tram rail_urban rail rail_electric rail_fast ship" speed="13.89" length="8.54" shape="110.81,331.77 111.13,334.26 110.58,336.07 110.03,337.88 110.34,340.38"/>
        <lane id=":1483517642_1_2" index="2" disallow="pedestrian bicycle tram rail_urban rail rail_electric rail_fast ship" speed="13.89" length="8.54" shape="110.81,331.77 113.37,339.35"/>
    </edge>
    <edge id=":1483517643_0" function="internal">
        <lane id=":1483517643_0_0" index="0" disallow="pedestrian bicycle tram rail_urban rail rail_electric rail_fast ship" speed="14.66" length="17.39" shape="188.72,459.06 191.85,456.98 195.24,455.12 199.41,454.00 204.85,454.14"/>
    </edge>
    <edge id=":1483517643_1" function="internal">
        <lane id=":1483517643_1_0" index="0" disallow="tram rail_urban rail rail_electric rail_fast ship" speed="16.67" length="17.61" shape="187.51,453.75 192.67,453.67 196.21,453.50 199.74,453.55 204.85,454.14"/>
        <lane id=":1483517643_1_1" index="1" disallow="tram rail_urban rail rail_electric rail_fast ship" speed="16.67" length="17.61" shape="187.54,450.55 192.83,450.47 196.47,450.31 200.08,450.37 205.32,450.97"/>
    </edge>
    <edge id=":236573460_0" function="internal">
        <lane id=":236573460_0_0" index="0" allow="bus bicycle" speed="13.89" length="8.01" shape="159.99,556.46 157.74,564.14"/>
    </edge>
    <edge id=":236573460_1" function="internal">
        <lane id=":236573460_1_0" index="0" disallow="pedestrian bicycle tram rail_urban rail rail_electric rail_fast ship" speed="13.89" length="8.54" shape="163.89,565.94 165.06,563.72 166.54,562.55 168.03,561.38 169.20,559.17"/>
        <lane id=":236573460_1_1" index="1" disallow="pedestrian bicycle tram rail_urban rail rail_electric rail_fast ship" speed="13.89" length="8.54" shape="160.81,565.04 161.98,562.82 163.47,561.65 164.96,560.48 166.13,558.26"/>
        <lane id=":236573460_1_2" index="2" disallow="pedestrian bicycle tram rail_urban rail rail_electric rail_fast ship" speed="13.89" length="8.54" shape="160.81,565.04 163.06,557.36"/>
    </edge>
    <edge id=":3941996065_0" function="internal">
        <lane id=":3941996065_0_0" index="0" allow="bus" speed="2.60" length="1.13" shape="137.75,420.40 137.77,420.80 137.73,420.94 137.62,420.82 137.46,420.43"/>
    </edge>
    <edge id=":3941996065_1" function="internal">
        <lane id=":3941996065_1_0" index="0" allow="bus bicycle" speed="13.89" length="8.51" shape="137.75,420.40 137.51,417.88 137.33,416.16 137.07,414.45 136.63,411.97"/>
    </edge>
    <edge id=":3941996065_2" function="internal">
        <lane id=":3941996065_2_0" index="0" allow="bus" speed="3.65" length="1.44" shape="137.75,420.40 136.82,419.29"/>
    </edge>
    <edge id=":3941996065_7" function="internal">
        <lane id=":3941996065_7_0" index="0" allow="bus" speed="3.65" length="3.23" shape="136.82,419.29 135.98,418.99 135.23,419.47 134.57,420.75"/>
    </edge>
    <edge id=":3941996065_3" function="internal">
        <lane id=":3941996065_3_0" index="0" disallow="pedestrian bicycle tram rail_urban rail rail_electric rail_fast ship" speed="13.89" length="10.73" shape="124.04,414.30 125.51,416.74 127.88,417.68 130.17,418.64 131.39,421.11"/>
        <lane id=":3941996065_3_1" index="1" disallow="pedestrian bicycle tram rail_urban rail rail_electric rail_fast ship" speed="13.89" length="10.73" shape="127.19,413.72 128.66,416.22 131.05,417.21 133.34,418.22 134.57,420.75"/>
    </edge>
    <edge id=":3941996065_5" function="internal">
        <lane id=":3941996065_5_0" index="0" disallow="pedestrian bicycle tram rail_urban rail rail_electric rail_fast ship" speed="13.89" length="6.65" shape="130.33,413.14 131.59,415.73 133.58,416.91 134.87,417.58"/>
    </edge>
    <edge id=":3941996065_6" function="internal">
        <lane id=":3941996065_6_0" index="0" allow="bus" speed="3.65" length="1.44" shape="133.48,412.55 134.48,413.59"/>
    </edge>
    <edge id=":3941996065_8" function="internal">
        <lane id=":3941996065_8_0" index="0" disallow="pedestrian bicycle tram rail_urban rail rail_electric rail_fast ship" speed="13.89" length="3.93" shape="134.87,417.58 135.73,418.02 137.46,420.43"/>
    </edge>
    <edge id=":3941996065_9" function="internal">
        <lane id=":3941996065_9_0" index="0" allow="bus" speed="3.65" length="3.23" shape="134.48,413.59 135.34,413.83 136.06,413.30 136.63,411.97"/>
    </edge>
    <edge id=":3941996105_0" function="internal">
        <lane id=":3941996105_0_0" index="0" allow="bus" speed="3.65" length="4.67" shape="-1.35,775.82 -1.32,777.26 -0.85,778.02 0.04,778.11 1.35,777.52"/>
    </edge>
    <edge id=":4604903923_0" function="internal">
        <lane id=":4604903923_0_0" index="0" disallow="pedestrian bicycle tram rail_urban rail rail_electric rail_fast ship" speed="8.94" length="9.41" shape="181.98,469.11 182.34,466.37 183.10,464.09 184.27,462.27 185.83,460.91"/>
    </edge>
    <edge id=":4604903923_1" function="internal">
        <lane id=":4604903923_1_0" index="0" disallow="pedestrian bicycle tram rail_urban rail rail_electric rail_fast ship" speed="13.89" length="8.01" shape="181.98,469.11 181.73,466.78 180.95,465.28 180.09,463.77 179.56,461.44"/>
        <lane id=":4604903923_1_1" index="1" disallow="pedestrian bicycle tram rail_urban rail rail_electric rail_fast ship" speed="13.89" length="8.01" shape="178.78,468.94 178.53,466.66 177.75,465.19 176.88,463.72 176.35,461.44"/>
        <lane id=":4604903923_1_2" index="2" disallow="pedestrian bicycle tram rail_urban rail rail_electric rail_fast ship" speed="13.89" length="8.01" shape="175.59,468.77 175.33,466.54 174.54,465.10 173.67,463.66 173.14,461.44"/>
    </edge>
    <edge id=":4604903923_4" function="internal">
        <lane id=":4604903923_4_0" index="0" allow="bus" speed="3.65" length="1.44" shape="175.59,468.77 174.85,467.52"/>
    </edge>
    <edge id=":4604903923_8" function="internal">
        <lane id=":4604903923_8_0" index="0" allow="bus" speed="3.65" length="3.23" shape="174.85,467.52 174.07,467.08 173.25,467.44 172.39,468.59"/>
    </edge>
    <edge id=":4604903923_5" function="internal">
        <lane id=":4604903923_5_0" index="0" allow="bus bicycle" speed="13.89" length="7.70" shape="169.94,461.43 170.46,463.61 171.34,465.01 172.13,466.41 172.39,468.59"/>
    </edge>
    <edge id=":4604903923_6" function="internal">
        <lane id=":4604903923_6_0" index="0" allow="bus" speed="8.00" length="3.52" shape="169.94,461.43 171.13,464.75"/>
    </edge>
    <edge id=":4604903923_7" function="internal">
        <lane id=":4604903923_7_0" index="0" allow="bus" speed="3.65" length="1.45" shape="169.94,461.43 170.74,462.64"/>
    </edge>
    <edge id=":4604903923_9" function="internal">
        <lane id=":4604903923_9_0" index="0" allow="bus" speed="8.00" length="16.08" shape="171.13,464.75 171.17,464.86 174.23,465.92 179.12,464.60 185.83,460.91"/>
    </edge>
    <edge id=":4604903923_10" function="internal">
        <lane id=":4604903923_10_0" index="0" allow="bus" speed="3.65" length="3.24" shape="170.74,462.64 171.54,463.04 172.34,462.64 173.14,461.44"/>
    </edge>
    <edge id=":4604903924_0" function="internal">
        <lane id=":4604903924_0_0" index="0" disallow="pedestrian bicycle tram rail_urban rail rail_electric rail_fast ship" speed="13.89" length="18.06" shape="180.60,423.18 176.62,419.79 173.83,417.35 171.81,414.45 170.10,409.67"/>
        <lane id=":4604903924_0_1" index="1" disallow="pedestrian bicycle tram rail_urban rail rail_electric rail_fast ship" speed="13.89" length="18.06" shape="177.88,425.03 173.70,421.41 170.84,418.75 168.79,415.61 167.02,410.51"/>
    </edge>
    <edge id=":4604903924_2" function="internal">
        <lane id=":4604903924_2_0" index="0" allow="bus" speed="7.59" length="4.58" shape="177.88,425.03 174.26,422.23"/>
    </edge>
    <edge id=":4604903924_8" function="internal">
        <lane id=":4604903924_8_0" index="0" allow="bus" speed="7.59" length="16.93" shape="174.26,422.23 171.78,420.32 167.83,419.33 166.04,422.07 166.39,428.52"/>
    </edge>
    <edge id=":4604903924_3" function="internal">
        <lane id=":4604903924_3_0" index="0" disallow="pedestrian bicycle tram rail_urban rail rail_electric rail_fast ship" speed="13.89" length="17.83" shape="172.70,427.44 171.99,422.14 171.72,418.48 171.30,414.85 170.10,409.67"/>
        <lane id=":4604903924_3_1" index="1" disallow="pedestrian bicycle tram rail_urban rail rail_electric rail_fast ship" speed="13.89" length="17.83" shape="169.55,427.98 168.85,422.78 168.60,419.18 168.19,415.61 167.02,410.51"/>
    </edge>
    <edge id=":4604903924_5" function="internal">
        <lane id=":4604903924_5_0" index="0" allow="bus" speed="3.65" length="1.44" shape="169.55,427.98 168.55,426.93"/>
    </edge>
    <edge id=":4604903924_9" function="internal">
        <lane id=":4604903924_9_0" index="0" allow="bus" speed="3.65" length="3.23" shape="168.55,426.93 167.70,426.67 166.98,427.20 166.39,428.52"/>
    </edge>
    <edge id=":4604903924_6" function="internal">
        <lane id=":4604903924_6_0" index="0" allow="bus bicycle" speed="13.89" length="17.35" shape="163.93,411.36 164.75,415.38 165.34,419.90 165.84,424.44 166.39,428.52"/>
    </edge>
    <edge id=":4604903924_7" function="internal">
        <lane id=":4604903924_7_0" index="0" allow="bus" speed="3.65" length="1.44" shape="163.93,411.36 165.02,412.30"/>
    </edge>
    <edge id=":4604903924_10" function="internal">
        <lane id=":4604903924_10_0" index="0" allow="bus" speed="3.65" length="3.23" shape="165.02,412.30 165.90,412.48 166.56,411.88 167.02,410.51"/>
    </edge>
    <edge id=":4740049498_0" function="internal">
        <lane id=":4740049498_0_0" index="0" disallow="pedestrian bicycle tram rail_urban rail rail_electric rail_fast ship" speed="15.28" length="23.04" shape="220.14,436.33 197.71,431.62"/>
        <lane id=":4740049498_0_1" index="1" disallow="pedestrian bicycle tram rail_urban rail rail_electric rail_fast ship" speed="15.28" length="23.04" shape="219.55,439.47 196.88,434.71"/>
    </edge>
    <edge id=":4740049498_2" function="internal">
        <lane id=":4740049498_2_0" index="0" disallow="tram rail_urban rail rail_electric rail_fast ship" speed="16.67" length="23.29" shape="219.55,439.47 212.52,438.47 207.42,438.35 202.59,438.67 196.35,438.97"/>
        <lane id=":4740049498_2_1" index="1" disallow="tram rail_urban rail rail_electric rail_fast ship" speed="16.67" length="22.64" shape="218.96,442.62 212.16,441.64 207.27,441.55 202.59,441.87 196.40,442.17"/>
    </edge>
    <edge id=":5268524380_0" function="internal">
        <lane id=":5268524380_0_0" index="0" allow="bus bicycle" speed="13.89" length="8.15" shape="127.42,371.60 125.01,363.81"/>
    </edge>
    <edge id=":5268524380_1" function="internal">
        <lane id=":5268524380_1_0" index="0" disallow="pedestrian bicycle tram rail_urban rail rail_electric rail_fast ship" speed="13.89" length="8.44" shape="115.91,366.88 116.18,369.25 115.58,370.96 114.94,372.68 115.11,375.08"/>
        <lane id=":5268524380_1_1" index="1" disallow="pedestrian bicycle tram rail_urban rail rail_electric rail_fast ship" speed="13.89" length="8.44" shape="118.94,365.86 119.23,368.27 118.64,370.01 118.01,371.76 118.19,374.21"/>
        <lane id=":5268524380_1_2" index="2" disallow="pedestrian bicycle tram rail_urban rail rail_electric rail_fast ship" speed="13.89" length="8.44" shape="121.98,364.84 122.28,367.29 121.70,369.07 121.08,370.85 121.26,373.34"/>
        <lane id=":5268524380_1_3" index="3" disallow="pedestrian bicycle tram rail_urban rail rail_electric rail_fast ship" speed="13.89" length="8.44" shape="121.98,364.84 124.34,372.47"/>
    </edge>
    <edge id=":555795618_0" function="internal">
        <lane id=":555795618_0_0" index="0" allow="bus" speed="3.65" length="4.67" shape="137.59,312.45 136.45,311.57 135.56,311.44 134.93,312.07 134.55,313.47"/>
    </edge>
    <edge id=":555795620_0" function="internal">
        <lane id=":555795620_0_0" index="0" disallow="pedestrian bicycle tram rail_urban rail rail_electric rail_fast ship" speed="13.89" length="9.05" shape="156.20,358.91 156.45,356.00 158.19,354.08 159.88,352.17 159.97,349.30"/>
        <lane id=":555795620_0_1" index="1" disallow="pedestrian bicycle tram rail_urban rail rail_electric rail_fast ship" speed="13.89" length="9.05" shape="156.20,358.91 156.03,356.39 156.65,354.59 157.23,352.80 156.93,350.31"/>
        <lane id=":555795620_0_2" index="2" disallow="pedestrian bicycle tram rail_urban rail rail_electric rail_fast ship" speed="13.89" length="9.05" shape="153.12,359.76 152.95,357.28 153.59,355.51 154.18,353.76 153.90,351.32"/>
        <lane id=":555795620_0_3" index="3" disallow="pedestrian bicycle tram rail_urban rail rail_electric rail_fast ship" speed="13.89" length="9.05" shape="153.12,359.76 150.86,352.33"/>
    </edge>
    <edge id=":555795620_4" function="internal">
        <lane id=":555795620_4_0" index="0" allow="bus bicycle" speed="13.89" length="7.59" shape="147.83,353.34 150.03,360.61"/>
    </edge>
    <edge id=":555795627_0" function="internal">
        <lane id=":555795627_0_0" index="0" allow="bus" speed="3.65" length="4.67" shape="96.71,687.93 96.77,689.37 97.25,690.13 98.14,690.20 99.45,689.59"/>
    </edge>
    <edge id=":5681333360_0" function="internal">
        <lane id=":5681333360_0_0" index="0" allow="bus" speed="3.65" length="4.67" shape="94.93,274.06 93.81,273.16 92.92,273.01 92.28,273.63 91.87,275.02"/>
    </edge>
    <edge id=":cluster_236618527_236619255_4604903925_6248638853_0" function="internal">
        <lane id=":cluster_236618527_236619255_4604903925_6248638853_0_0" index="0" allow="bus bicycle" speed="14.42" length="45.44" shape="184.23,439.17 140.80,452.56"/>
    </edge>
    <edge id=":cluster_236618527_236619255_4604903925_6248638853_1" function="internal">
        <lane id=":cluster_236618527_236619255_4604903925_6248638853_1_0" index="0" disallow="pedestrian bicycle tram rail_urban rail rail_electric rail_fast ship" speed="15.28" length="54.28" shape="184.33,442.37 164.30,443.86 149.88,447.56 141.07,453.45 137.85,461.54"/>
    </edge>
    <edge id=":cluster_236618527_236619255_4604903925_6248638853_2" function="internal">
        <lane id=":cluster_236618527_236619255_4604903925_6248638853_2_0" index="0" allow="bus bicycle" speed="10.71" length="27.33" shape="184.33,442.37 177.54,443.65 172.87,447.22 170.34,453.08 169.92,461.23"/>
    </edge>
    <edge id=":cluster_236618527_236619255_4604903925_6248638853_3" function="internal">
        <lane id=":cluster_236618527_236619255_4604903925_6248638853_3_0" index="0" disallow="tram rail_urban rail rail_electric rail_fast ship" speed="5.23" length="11.91" shape="184.33,442.37 181.33,444.51 180.38,446.58 181.46,448.58 184.58,450.52"/>
    </edge>
    <edge id=":cluster_236618527_236619255_4604903925_6248638853_4" function="internal">
        <lane id=":cluster_236618527_236619255_4604903925_6248638853_4_0" index="0" disallow="pedestrian bicycle tram rail_urban rail rail_electric rail_fast ship" speed="13.89" length="28.27" shape="179.55,461.24 178.40,452.50 176.73,446.09 175.00,440.44 173.70,433.95"/>
        <lane id=":cluster_236618527_236619255_4604903925_6248638853_4_1" index="1" disallow="pedestrian bicycle tram rail_urban rail rail_electric rail_fast ship" speed="13.89" length="28.27" shape="179.55,461.24 177.89,452.47 175.13,446.21 172.32,440.74 170.53,434.34"/>
    </edge>
    <edge id=":cluster_236618527_236619255_4604903925_6248638853_6" function="internal">
        <lane id=":cluster_236618527_236619255_4604903925_6248638853_6_0" index="0" allow="bus" speed="13.89" length="38.99" shape="176.34,461.24 170.41,454.27 158.36,453.16 146.42,453.91 140.80,452.56"/>
    </edge>
    <edge id=":cluster_236618527_236619255_4604903925_6248638853_7" function="internal">
        <lane id=":cluster_236618527_236619255_4604903925_6248638853_7_0" index="0" disallow="pedestrian bicycle tram rail_urban rail rail_electric rail_fast ship" speed="8.64" length="33.63" shape="173.13,461.24 139.50,461.53"/>
    </edge>
    <edge id=":cluster_236618527_236619255_4604903925_6248638853_8" function="internal">
        <lane id=":cluster_236618527_236619255_4604903925_6248638853_8_0" index="0" allow="bus" speed="3.65" length="1.45" shape="173.13,461.24 172.33,460.03"/>
    </edge>
    <edge id=":cluster_236618527_236619255_4604903925_6248638853_25" function="internal">
        <lane id=":cluster_236618527_236619255_4604903925_6248638853_25_0" index="0" disallow="pedestrian bicycle tram rail_urban rail rail_electric rail_fast ship" speed="8.64" length="1.65" shape="139.50,461.53 137.85,461.54"/>
    </edge>
    <edge id=":cluster_236618527_236619255_4604903925_6248638853_26" function="internal">
        <lane id=":cluster_236618527_236619255_4604903925_6248638853_26_0" index="0" allow="bus" speed="3.65" length="3.24" shape="172.33,460.03 171.53,459.63 170.73,460.03 169.92,461.23"/>
    </edge>
    <edge id=":cluster_236618527_236619255_4604903925_6248638853_9" function="internal">
        <lane id=":cluster_236618527_236619255_4604903925_6248638853_9_0" index="0" allow="bus bicycle" speed="13.89" length="9.14" shape="141.05,461.68 141.16,458.97 141.17,457.12 141.06,455.26 140.80,452.56"/>
    </edge>
    <edge id=":cluster_236618527_236619255_4604903925_6248638853_10" function="internal">
        <lane id=":cluster_236618527_236619255_4604903925_6248638853_10_0" index="0" allow="bus" speed="3.65" length="0.87" shape="141.05,461.68 140.60,460.94"/>
    </edge>
    <edge id=":cluster_236618527_236619255_4604903925_6248638853_27" function="internal">
        <lane id=":cluster_236618527_236619255_4604903925_6248638853_27_0" index="0" allow="bus" speed="3.65" length="3.81" shape="140.60,460.94 140.30,460.45 139.52,460.01 138.70,460.38 137.85,461.54"/>
    </edge>
    <edge id=":cluster_236618527_236619255_4604903925_6248638853_11" function="internal">
        <lane id=":cluster_236618527_236619255_4604903925_6248638853_11_0" index="0" disallow="pedestrian bicycle tram rail_urban rail rail_electric rail_fast ship" speed="13.89" length="8.22" shape="134.43,453.19 134.66,455.62 134.76,457.29 134.75,458.96 134.65,461.40"/>
        <lane id=":cluster_236618527_236619255_4604903925_6248638853_11_1" index="1" disallow="pedestrian bicycle tram rail_urban rail rail_electric rail_fast ship" speed="13.89" length="8.68" shape="137.62,452.88 137.86,455.44 137.97,457.20 137.96,458.97 137.85,461.54"/>
    </edge>
    <edge id=":cluster_236618527_236619255_4604903925_6248638853_13" function="internal">
        <lane id=":cluster_236618527_236619255_4604903925_6248638853_13_0" index="0" allow="bus" speed="3.65" length="2.34" shape="137.62,452.88 138.53,453.99 139.37,454.31"/>
    </edge>
    <edge id=":cluster_236618527_236619255_4604903925_6248638853_28" function="internal">
        <lane id=":cluster_236618527_236619255_4604903925_6248638853_28_0" index="0" allow="bus" speed="3.65" length="2.34" shape="139.37,454.31 140.12,453.84 140.80,452.56"/>
    </edge>
    <edge id=":cluster_236618527_236619255_4604903925_6248638853_14" function="internal">
        <lane id=":cluster_236618527_236619255_4604903925_6248638853_14_0" index="0" allow="bus" speed="7.21" length="14.84" shape="153.97,445.71 140.80,452.56"/>
    </edge>
    <edge id=":cluster_236618527_236619255_4604903925_6248638853_15" function="internal">
        <lane id=":cluster_236618527_236619255_4604903925_6248638853_15_0" index="0" disallow="pedestrian bicycle tram rail_urban rail rail_electric rail_fast ship" speed="11.64" length="24.89" shape="153.97,445.71 134.65,461.40"/>
    </edge>
    <edge id=":cluster_236618527_236619255_4604903925_6248638853_16" function="internal">
        <lane id=":cluster_236618527_236619255_4604903925_6248638853_16_0" index="0" allow="bus" speed="12.01" length="23.66" shape="153.97,445.71 160.67,448.50 165.56,452.02 168.65,456.26 169.92,461.23"/>
    </edge>
    <edge id=":cluster_236618527_236619255_4604903925_6248638853_17" function="internal">
        <lane id=":cluster_236618527_236619255_4604903925_6248638853_17_0" index="0" disallow="pedestrian bicycle tram rail_urban rail rail_electric rail_fast ship" speed="15.28" length="31.45" shape="153.97,445.71 159.37,447.59 167.36,450.25 176.34,452.65 184.68,453.73"/>
        <lane id=":cluster_236618527_236619255_4604903925_6248638853_17_1" index="1" disallow="pedestrian bicycle tram rail_urban rail rail_electric rail_fast ship" speed="15.28" length="31.45" shape="153.97,445.71 159.36,447.09 167.31,448.65 176.25,449.94 184.58,450.52"/>
    </edge>
    <edge id=":cluster_236618527_236619255_4604903925_6248638853_19" function="internal">
        <lane id=":cluster_236618527_236619255_4604903925_6248638853_19_0" index="0" disallow="pedestrian bicycle tram rail_urban rail rail_electric rail_fast ship" speed="8.67" length="13.54" shape="153.97,445.71 159.36,445.73 164.95,443.28 166.43,441.86"/>
    </edge>
    <edge id=":cluster_236618527_236619255_4604903925_6248638853_29" function="internal">
        <lane id=":cluster_236618527_236619255_4604903925_6248638853_29_0" index="0" disallow="pedestrian bicycle tram rail_urban rail rail_electric rail_fast ship" speed="8.67" length="8.88" shape="166.43,441.86 169.19,439.21 170.53,434.34"/>
    </edge>
    <edge id=":cluster_236618527_236619255_4604903925_6248638853_20" function="internal">
        <lane id=":cluster_236618527_236619255_4604903925_6248638853_20_0" index="0" allow="bus bicycle" speed="8.13" length="15.75" shape="167.35,434.74 154.28,443.52"/>
    </edge>
    <edge id=":cluster_236618527_236619255_4604903925_6248638853_21" function="internal">
        <lane id=":cluster_236618527_236619255_4604903925_6248638853_21_0" index="0" allow="bus" speed="13.89" length="40.43" shape="167.35,434.74 163.07,439.62 153.00,446.26 142.74,453.84 137.85,461.54"/>
    </edge>
    <edge id=":cluster_236618527_236619255_4604903925_6248638853_22" function="internal">
        <lane id=":cluster_236618527_236619255_4604903925_6248638853_22_0" index="0" allow="bus bicycle" speed="13.89" length="26.62" shape="167.35,434.74 169.92,461.23"/>
    </edge>
    <edge id=":cluster_236618527_236619255_4604903925_6248638853_23" function="internal">
        <lane id=":cluster_236618527_236619255_4604903925_6248638853_23_0" index="0" allow="bus bicycle" speed="11.22" length="11.79" shape="167.35,434.74 169.16,441.59 171.88,445.43"/>
    </edge>
    <edge id=":cluster_236618527_236619255_4604903925_6248638853_24" function="internal">
        <lane id=":cluster_236618527_236619255_4604903925_6248638853_24_0" index="0" allow="bus" speed="3.65" length="1.44" shape="167.35,434.74 168.29,435.83"/>
    </edge>
    <edge id=":cluster_236618527_236619255_4604903925_6248638853_30" function="internal">
        <lane id=":cluster_236618527_236619255_4604903925_6248638853_30_0" index="0" allow="bus bicycle" speed="8.13" length="16.23" shape="154.28,443.52 140.80,452.56"/>
    </edge>
    <edge id=":cluster_236618527_236619255_4604903925_6248638853_31" function="internal">
        <lane id=":cluster_236618527_236619255_4604903925_6248638853_31_0" index="0" allow="bus bicycle" speed="11.22" length="14.14" shape="171.88,445.43 172.64,446.50 177.78,449.48 184.58,450.52"/>
    </edge>