<?xml version="1.0" encoding="UTF-8"?>

<!-- generated on 2023-07-18 14:23:27 by Eclipse SUMO netconvert Version 1.17.0
<configuration xmlns:xsi="http://www.w3.org/2001/XMLSchema-instance" xsi:noNamespaceSchemaLocation="http://sumo.dlr.de/xsd/netconvertConfiguration.xsd">

    <input>
        <sumo-net-file value="osm.net.xml.gz"/>
    </input>

    <output>
        <output-file value="osm.net.xml"/>
        <output.street-names value="true"/>
    </output>

    <processing>
        <geometry.min-radius.fix.railways value="false"/>
        <geometry.max-grade.fix value="false"/>
        <offset.disable-normalization value="true"/>
        <lefthand value="1"/>
    </processing>

    <junctions>
        <no-turnarounds value="true"/>
        <junctions.corner-detail value="5"/>
        <junctions.limit-turn-speed value="5.50"/>
        <rectangular-lane-cut value="0"/>
    </junctions>

    <pedestrian>
        <walkingareas value="0"/>
    </pedestrian>

</configuration>
-->

<net version="1.16" junctionCornerDetail="5" lefthand="true" limitTurnSpeed="5.50" xmlns:xsi="http://www.w3.org/2001/XMLSchema-instance" xsi:noNamespaceSchemaLocation="http://sumo.dlr.de/xsd/net_file.xsd">

    <location netOffset="-378700.36,-151906.65" convBoundary="0.00,0.00,1951.10,1888.66" origBoundary="103.909658,1.374095,103.927200,1.391178" projParameter="+proj=utm +zone=48 +ellps=WGS84 +datum=WGS84 +units=m +no_defs"/>

    <type id="highway.bridleway" priority="1" numLanes="1" speed="2.78" allow="pedestrian" oneway="1" width="2.00"/>
    <type id="highway.bus_guideway" priority="1" numLanes="1" speed="27.78" allow="bus" oneway="1"/>
    <type id="highway.cycleway" priority="1" numLanes="1" speed="5.56" allow="bicycle" oneway="0" width="1.00"/>
    <type id="highway.footway" priority="1" numLanes="1" speed="2.78" allow="pedestrian" oneway="1" width="2.00"/>
    <type id="highway.ford" priority="1" numLanes="1" speed="2.78" allow="army" oneway="0"/>
    <type id="highway.living_street" priority="2" numLanes="1" speed="2.78" disallow="tram rail_urban rail rail_electric rail_fast ship" oneway="0"/>
    <type id="highway.motorway" priority="14" numLanes="2" speed="39.44" allow="private emergency authority army vip passenger hov taxi bus coach delivery truck trailer motorcycle evehicle custom1 custom2" oneway="1"/>
    <type id="highway.motorway_link" priority="9" numLanes="1" speed="22.22" allow="private emergency authority army vip passenger hov taxi bus coach delivery truck trailer motorcycle evehicle custom1 custom2" oneway="1"/>
    <type id="highway.path" priority="1" numLanes="1" speed="5.56" allow="pedestrian bicycle" oneway="0" width="2.00"/>
    <type id="highway.pedestrian" priority="1" numLanes="1" speed="2.78" allow="pedestrian" oneway="1" width="2.00"/>
    <type id="highway.primary" priority="12" numLanes="2" speed="27.78" disallow="tram rail_urban rail rail_electric rail_fast ship" oneway="0"/>
    <type id="highway.primary_link" priority="7" numLanes="1" speed="22.22" disallow="tram rail_urban rail rail_electric rail_fast ship" oneway="0"/>
    <type id="highway.raceway" priority="15" numLanes="2" speed="83.33" allow="vip" oneway="0"/>
    <type id="highway.residential" priority="3" numLanes="1" speed="13.89" disallow="tram rail_urban rail rail_electric rail_fast ship" oneway="0"/>
    <type id="highway.secondary" priority="11" numLanes="1" speed="27.78" disallow="tram rail_urban rail rail_electric rail_fast ship" oneway="0"/>
    <type id="highway.secondary_link" priority="6" numLanes="1" speed="22.22" disallow="tram rail_urban rail rail_electric rail_fast ship" oneway="0"/>
    <type id="highway.service" priority="1" numLanes="1" speed="5.56" allow="pedestrian delivery bicycle" oneway="0"/>
    <type id="highway.stairs" priority="1" numLanes="1" speed="1.39" allow="pedestrian" oneway="1" width="2.00"/>
    <type id="highway.step" priority="1" numLanes="1" speed="1.39" allow="pedestrian" oneway="1" width="2.00"/>
    <type id="highway.steps" priority="1" numLanes="1" speed="1.39" allow="pedestrian" oneway="1" width="2.00"/>
    <type id="highway.tertiary" priority="10" numLanes="1" speed="22.22" disallow="tram rail_urban rail rail_electric rail_fast ship" oneway="0"/>
    <type id="highway.tertiary_link" priority="5" numLanes="1" speed="22.22" disallow="tram rail_urban rail rail_electric rail_fast ship" oneway="0"/>
    <type id="highway.track" priority="1" numLanes="1" speed="5.56" allow="pedestrian motorcycle moped bicycle" oneway="0"/>
    <type id="highway.trunk" priority="13" numLanes="2" speed="27.78" disallow="pedestrian bicycle tram rail_urban rail rail_electric rail_fast ship" oneway="0"/>
    <type id="highway.trunk_link" priority="8" numLanes="1" speed="22.22" disallow="pedestrian bicycle tram rail_urban rail rail_electric rail_fast ship" oneway="0"/>
    <type id="highway.unclassified" priority="4" numLanes="1" speed="13.89" disallow="tram rail_urban rail rail_electric rail_fast ship" oneway="0"/>
    <type id="highway.unsurfaced" priority="1" numLanes="1" speed="8.33" disallow="tram rail_urban rail rail_electric rail_fast ship" oneway="0"/>
    <type id="railway.highspeed" priority="21" numLanes="1" speed="69.44" allow="rail_fast" oneway="1"/>
    <type id="railway.light_rail" priority="19" numLanes="1" speed="27.78" allow="rail_urban" oneway="1"/>
    <type id="railway.preserved" priority="16" numLanes="1" speed="27.78" allow="rail" oneway="1"/>
    <type id="railway.rail" priority="20" numLanes="1" speed="44.44" allow="rail" oneway="1"/>
    <type id="railway.subway" priority="18" numLanes="1" speed="27.78" allow="rail_urban" oneway="1"/>
    <type id="railway.tram" priority="17" numLanes="1" speed="13.89" allow="tram" oneway="1"/>

    <edge id=":133662117_0" function="internal">
        <lane id=":133662117_0_0" index="0" allow="private emergency authority army vip passenger hov taxi bus coach delivery truck trailer motorcycle evehicle custom1 custom2" speed="25.00" length="3.37" shape="1229.23,638.62 1231.96,637.07"/>
        <lane id=":133662117_0_1" index="1" allow="private emergency authority army vip passenger hov taxi bus coach delivery truck trailer motorcycle evehicle custom1 custom2" speed="25.00" length="3.37" shape="1227.60,635.87 1230.46,634.25"/>
        <lane id=":133662117_0_2" index="2" allow="private emergency authority army vip passenger hov taxi bus coach delivery truck trailer motorcycle evehicle custom1 custom2" speed="25.00" length="3.37" shape="1225.96,633.12 1228.96,631.42"/>
        <lane id=":133662117_0_3" index="3" allow="private emergency authority army vip passenger hov taxi bus coach delivery truck trailer motorcycle evehicle custom1 custom2" speed="25.00" length="3.37" shape="1224.32,630.37 1227.47,628.59"/>
    </edge>
    <edge id=":133662117_4" function="internal">
        <lane id=":133662117_4_0" index="0" allow="private emergency authority army vip passenger hov taxi bus coach delivery truck trailer motorcycle evehicle custom1 custom2" speed="19.45" length="2.98" shape="1230.83,641.31 1233.46,639.90"/>
    </edge>
    <edge id=":135078451_0" function="internal">
        <lane id=":135078451_0_0" index="0" allow="private emergency authority army vip passenger hov taxi bus coach delivery truck trailer motorcycle evehicle custom1 custom2" speed="19.45" length="2.75" shape="624.31,1154.77 623.71,1155.32 623.29,1155.71 622.91,1156.11 622.38,1156.73"/>
    </edge>
    <edge id=":135078451_1" function="internal">
        <lane id=":135078451_1_0" index="0" allow="private emergency authority army vip passenger hov taxi bus coach delivery truck trailer motorcycle evehicle custom1 custom2" speed="25.00" length="1.88" shape="626.44,1157.10 625.93,1157.57 625.59,1157.90 625.28,1158.25 624.84,1158.77"/>
        <lane id=":135078451_1_1" index="1" allow="private emergency authority army vip passenger hov taxi bus coach delivery truck trailer motorcycle evehicle custom1 custom2" speed="25.00" length="1.88" shape="628.60,1159.46 628.19,1159.84 627.91,1160.11 627.66,1160.39 627.30,1160.82"/>
        <lane id=":135078451_1_2" index="2" allow="private emergency authority army vip passenger hov taxi bus coach delivery truck trailer motorcycle evehicle custom1 custom2" speed="25.00" length="1.88" shape="630.75,1161.83 630.44,1162.11 630.23,1162.32 630.03,1162.54 629.76,1162.86"/>
    </edge>
    <edge id=":135080726_0" function="internal">
        <lane id=":135080726_0_0" index="0" allow="private emergency authority army vip passenger hov taxi bus coach delivery truck trailer motorcycle evehicle custom1 custom2" speed="19.45" length="16.68" shape="1235.66,591.35 1231.43,593.79 1228.95,596.17 1226.49,598.59 1222.32,601.17"/>
        <lane id=":135080726_0_1" index="1" allow="private emergency authority army vip passenger hov taxi bus coach delivery truck trailer motorcycle evehicle custom1 custom2" speed="19.45" length="15.29" shape="1236.96,594.27 1233.10,596.54 1230.89,598.79 1228.69,601.09 1224.89,603.48"/>
    </edge>
    <edge id=":135080726_2" function="internal">
        <lane id=":135080726_2_0" index="0" allow="private emergency authority army vip passenger hov taxi bus coach delivery truck trailer motorcycle evehicle custom1 custom2" speed="25.00" length="13.29" shape="1238.25,597.20 1234.25,598.91 1231.50,600.08 1228.86,601.45 1225.16,603.73"/>
        <lane id=":135080726_2_1" index="1" allow="private emergency authority army vip passenger hov taxi bus coach delivery truck trailer motorcycle evehicle custom1 custom2" speed="25.00" length="13.29" shape="1239.54,600.13 1235.91,601.66 1233.40,602.69 1230.99,603.89 1227.63,605.94"/>
        <lane id=":135080726_2_2" index="2" allow="private emergency authority army vip passenger hov taxi bus coach delivery truck trailer motorcycle evehicle custom1 custom2" speed="25.00" length="13.29" shape="1240.84,603.05 1237.57,604.41 1235.30,605.30 1233.12,606.34 1230.09,608.16"/>
    </edge>
    <edge id=":244985237_0" function="internal">
        <lane id=":244985237_0_0" index="0" allow="private emergency authority army vip passenger hov taxi bus coach delivery truck trailer motorcycle evehicle custom1 custom2" speed="22.22" length="8.20" shape="284.47,394.17 277.70,389.93"/>
        <lane id=":244985237_0_1" index="1" allow="private emergency authority army vip passenger hov taxi bus coach delivery truck trailer motorcycle evehicle custom1 custom2" speed="22.22" length="8.20" shape="282.77,396.88 276.00,392.63"/>
        <lane id=":244985237_0_2" index="2" allow="private emergency authority army vip passenger hov taxi bus coach delivery truck trailer motorcycle evehicle custom1 custom2" speed="22.22" length="8.20" shape="281.08,399.59 274.29,395.34"/>
        <lane id=":244985237_0_3" index="3" allow="private emergency authority army vip passenger hov taxi bus coach delivery truck trailer motorcycle evehicle custom1 custom2" speed="22.22" length="8.20" shape="281.08,399.59 278.72,398.71 276.83,398.83 274.94,398.94 272.59,398.05"/>
    </edge>
    <edge id=":244985539_0" function="internal">
        <lane id=":244985539_0_0" index="0" allow="private emergency authority army vip passenger hov taxi bus coach delivery truck trailer motorcycle evehicle custom1 custom2" speed="13.89" length="7.71" shape="914.34,963.62 913.47,961.47 913.19,959.86 912.85,958.28 911.81,956.24"/>
        <lane id=":244985539_0_1" index="1" allow="private emergency authority army vip passenger hov taxi bus coach delivery truck trailer motorcycle evehicle custom1 custom2" speed="13.89" length="7.71" shape="911.52,965.13 910.69,963.06 910.44,961.50 910.14,959.97 909.14,958.00"/>
    </edge>
    <edge id=":244985683_0" function="internal">
        <lane id=":244985683_0_0" index="0" allow="private emergency authority army vip passenger hov taxi bus coach delivery truck trailer motorcycle evehicle custom1 custom2" speed="20.83" length="3.02" shape="253.47,412.83 256.03,414.50"/>
        <lane id=":244985683_0_1" index="1" allow="private emergency authority army vip passenger hov taxi bus coach delivery truck trailer motorcycle evehicle custom1 custom2" speed="20.83" length="3.02" shape="255.25,410.17 257.75,411.79"/>
    </edge>
    <edge id=":244985683_2" function="internal">
        <lane id=":244985683_2_0" index="0" allow="private emergency authority army vip passenger hov taxi bus coach delivery truck trailer motorcycle evehicle custom1 custom2" speed="22.22" length="3.27" shape="257.03,407.51 258.63,410.40"/>
        <lane id=":244985683_2_1" index="1" allow="private emergency authority army vip passenger hov taxi bus coach delivery truck trailer motorcycle evehicle custom1 custom2" speed="22.22" length="3.27" shape="258.81,404.85 260.34,407.70"/>
    </edge>
    <edge id=":248015454_0" function="internal">
        <lane id=":248015454_0_0" index="0" allow="private emergency authority army vip passenger hov taxi bus coach delivery truck trailer motorcycle evehicle custom1 custom2" speed="13.89" length="8.02" shape="947.50,749.39 945.33,750.33 943.70,750.65 942.08,751.00 939.98,752.04"/>
    </edge>
    <edge id=":248015461_0" function="internal">
        <lane id=":248015461_0_0" index="0" allow="private emergency authority army vip passenger hov taxi bus coach delivery truck trailer motorcycle evehicle custom1 custom2" speed="18.05" length="4.01" shape="702.73,677.61 700.13,674.55"/>
    </edge>
    <edge id=":248015461_1" function="internal">
        <lane id=":248015461_1_0" index="0" allow="private emergency authority army vip passenger hov taxi bus coach delivery truck trailer motorcycle evehicle custom1 custom2" speed="18.05" length="3.58" shape="700.15,679.79 699.53,678.82 699.08,678.18 698.57,677.57 697.79,676.73"/>
        <lane id=":248015461_1_1" index="1" allow="private emergency authority army vip passenger hov taxi bus coach delivery truck trailer motorcycle evehicle custom1 custom2" speed="18.05" length="3.58" shape="697.45,681.50 696.93,680.68 696.54,680.14 696.11,679.63 695.45,678.91"/>
    </edge>
    <edge id=":248017101_0" function="internal">
        <lane id=":248017101_0_0" index="0" disallow="tram rail_urban rail rail_electric rail_fast ship" speed="19.44" length="6.93" shape="566.42,497.79 565.30,496.25 565.24,494.74 565.25,493.15 564.38,491.35"/>
        <lane id=":248017101_0_1" index="1" disallow="tram rail_urban rail rail_electric rail_fast ship" speed="19.44" length="6.93" shape="566.42,497.79 564.98,496.62 564.03,495.77 563.16,494.84 561.94,493.43"/>
        <lane id=":248017101_0_2" index="2" disallow="tram rail_urban rail rail_electric rail_fast ship" speed="19.44" length="6.93" shape="566.42,497.79 564.48,496.86 562.79,496.83 561.19,496.71 559.51,495.51"/>
    </edge>
    <edge id=":3168625114_0" function="internal">
        <lane id=":3168625114_0_0" index="0" allow="private emergency authority army vip passenger hov taxi bus coach delivery truck trailer motorcycle evehicle custom1 custom2" speed="10.04" length="2.73" shape="627.50,1205.57 628.04,1204.97 628.39,1204.53 628.64,1204.03 628.91,1203.27"/>
    </edge>
    <edge id=":3168625114_1" function="internal">
        <lane id=":3168625114_1_0" index="0" allow="private emergency authority army vip passenger hov taxi bus coach delivery truck trailer motorcycle evehicle custom1 custom2" speed="25.00" length="3.12" shape="625.10,1203.45 627.19,1201.03"/>
        <lane id=":3168625114_1_1" index="1" allow="private emergency authority army vip passenger hov taxi bus coach delivery truck trailer motorcycle evehicle custom1 custom2" speed="25.00" length="3.12" shape="622.71,1201.33 624.74,1198.97"/>
        <lane id=":3168625114_1_2" index="2" allow="private emergency authority army vip passenger hov taxi bus coach delivery truck trailer motorcycle evehicle custom1 custom2" speed="25.00" length="3.12" shape="620.31,1199.21 622.30,1196.91"/>
    </edge>
    <edge id=":3168629161_0" function="internal">
        <lane id=":3168629161_0_0" index="0" allow="private emergency authority army vip passenger hov taxi bus coach delivery truck trailer motorcycle evehicle custom1 custom2" speed="13.89" length="1.07" shape="935.28,1069.67 935.29,1069.83 935.29,1069.94 935.27,1070.05 935.24,1070.20"/>
        <lane id=":3168629161_0_1" index="1" allow="private emergency authority army vip passenger hov taxi bus coach delivery truck trailer motorcycle evehicle custom1 custom2" speed="11.25" length="1.07" shape="938.47,1069.41 938.50,1069.89 938.50,1070.22 938.45,1070.54 938.33,1071.00"/>
    </edge>
    <edge id=":3168629168_0" function="internal">
        <lane id=":3168629168_0_0" index="0" allow="private emergency authority army vip passenger hov taxi bus coach delivery truck trailer motorcycle evehicle custom1 custom2" speed="19.45" length="3.17" shape="945.49,872.93 947.69,870.57"/>
        <lane id=":3168629168_0_1" index="1" allow="private emergency authority army vip passenger hov taxi bus coach delivery truck trailer motorcycle evehicle custom1 custom2" speed="19.45" length="3.17" shape="943.27,870.62 945.39,868.34"/>
    </edge>
    <edge id=":3168629168_2" function="internal">
        <lane id=":3168629168_2_0" index="0" allow="private emergency authority army vip passenger hov taxi bus coach delivery truck trailer motorcycle evehicle custom1 custom2" speed="25.00" length="2.88" shape="940.97,868.23 943.09,866.12"/>
        <lane id=":3168629168_2_1" index="1" allow="private emergency authority army vip passenger hov taxi bus coach delivery truck trailer motorcycle evehicle custom1 custom2" speed="25.00" length="2.88" shape="938.75,865.93 940.79,863.89"/>
        <lane id=":3168629168_2_2" index="2" allow="private emergency authority army vip passenger hov taxi bus coach delivery truck trailer motorcycle evehicle custom1 custom2" speed="25.00" length="2.88" shape="936.54,863.62 938.49,861.67"/>
    </edge>
    <edge id=":33176817#1-AddedOnRampNode_0" function="internal">
        <lane id=":33176817#1-AddedOnRampNode_0_0" index="0" allow="private emergency authority army vip passenger hov taxi bus coach delivery truck trailer motorcycle evehicle custom1 custom2" speed="25.00" length="8.00" shape="368.75,1453.50 363.58,1459.61"/>
        <lane id=":33176817#1-AddedOnRampNode_0_1" index="1" allow="private emergency authority army vip passenger hov taxi bus coach delivery truck trailer motorcycle evehicle custom1 custom2" speed="25.00" length="8.00" shape="371.19,1455.57 366.03,1461.68"/>
        <lane id=":33176817#1-AddedOnRampNode_0_2" index="2" allow="private emergency authority army vip passenger hov taxi bus coach delivery truck trailer motorcycle evehicle custom1 custom2" speed="25.00" length="8.00" shape="373.64,1457.64 368.47,1463.74"/>
        <lane id=":33176817#1-AddedOnRampNode_0_3" index="3" allow="private emergency authority army vip passenger hov taxi bus coach delivery truck trailer motorcycle evehicle custom1 custom2" speed="25.00" length="8.00" shape="376.08,1459.71 370.91,1465.81"/>
    </edge>
    <edge id=":369941950_0" function="internal">
        <lane id=":369941950_0_0" index="0" allow="private emergency authority army vip passenger hov taxi bus coach delivery truck trailer motorcycle evehicle custom1 custom2" speed="6.00" length="9.08" shape="1053.23,793.11 1051.14,791.56 1050.26,789.83 1050.58,787.91 1052.09,785.80"/>
    </edge>
    <edge id=":369941950_1" function="internal">
        <lane id=":369941950_1_0" index="0" allow="private emergency authority army vip passenger hov taxi bus coach delivery truck trailer motorcycle evehicle custom1 custom2" speed="7.73" length="10.54" shape="1041.98,796.40 1043.93,794.95 1046.21,794.38 1048.80,794.71 1051.71,795.92"/>
    </edge>
    <edge id=":369941950_2" function="internal">
        <lane id=":369941950_2_0" index="0" allow="private emergency authority army vip passenger hov taxi bus coach delivery truck trailer motorcycle evehicle custom1 custom2" speed="13.89" length="14.65" shape="1041.98,796.40 1052.09,785.80"/>
    </edge>
    <edge id=":369941951_0" function="internal">
        <lane id=":369941951_0_0" index="0" disallow="tram rail_urban rail rail_electric rail_fast ship" speed="3.65" length="4.67" shape="1426.81,998.91 1428.24,998.78 1428.98,998.26 1429.01,997.37 1428.33,996.09"/>
    </edge>
    <edge id=":383446321_0" function="internal">
        <lane id=":383446321_0_0" index="0" allow="private emergency authority army vip passenger hov taxi bus coach delivery truck trailer motorcycle evehicle custom1 custom2" speed="13.89" length="7.90" shape="640.16,652.38 641.71,654.03 642.46,655.43 643.18,656.87 644.61,658.64"/>
        <lane id=":383446321_0_1" index="1" allow="private emergency authority army vip passenger hov taxi bus coach delivery truck trailer motorcycle evehicle custom1 custom2" speed="13.89" length="7.90" shape="640.16,652.38 642.07,653.69 643.59,654.30 645.07,654.95 646.86,656.37"/>
        <lane id=":383446321_0_2" index="2" allow="private emergency authority army vip passenger hov taxi bus coach delivery truck trailer motorcycle evehicle custom1 custom2" speed="13.89" length="7.90" shape="642.23,649.95 644.20,651.30 645.75,651.94 647.27,652.62 649.12,654.10"/>
    </edge>
    <edge id=":4076188214_0" function="internal">
        <lane id=":4076188214_0_0" index="0" allow="private emergency authority army vip passenger hov taxi bus coach delivery truck trailer motorcycle evehicle custom1 custom2" speed="11.11" length="8.08" shape="802.69,1125.89 804.74,1127.11 805.97,1128.26 807.22,1129.38 809.31,1130.49"/>
        <lane id=":4076188214_0_1" index="1" allow="private emergency authority army vip passenger hov taxi bus coach delivery truck trailer motorcycle evehicle custom1 custom2" speed="11.11" length="8.08" shape="802.69,1125.89 804.92,1126.64 806.57,1126.78 808.23,1126.87 810.51,1127.52"/>
    </edge>
    <edge id=":445716781-AddedOnRampNode_0" function="internal">
        <lane id=":445716781-AddedOnRampNode_0_0" index="0" allow="private emergency authority army vip passenger hov taxi bus coach delivery truck trailer motorcycle evehicle custom1 custom2" speed="25.00" length="8.00" shape="1315.46,592.85 1322.53,589.10"/>
        <lane id=":445716781-AddedOnRampNode_0_1" index="1" allow="private emergency authority army vip passenger hov taxi bus coach delivery truck trailer motorcycle evehicle custom1 custom2" speed="25.00" length="8.00" shape="1313.97,590.02 1321.03,586.27"/>
        <lane id=":445716781-AddedOnRampNode_0_2" index="2" allow="private emergency authority army vip passenger hov taxi bus coach delivery truck trailer motorcycle evehicle custom1 custom2" speed="25.00" length="8.00" shape="1312.47,587.19 1319.54,583.44"/>
        <lane id=":445716781-AddedOnRampNode_0_3" index="3" allow="private emergency authority army vip passenger hov taxi bus coach delivery truck trailer motorcycle evehicle custom1 custom2" speed="25.00" length="8.00" shape="1310.97,584.37 1318.04,580.62"/>
    </edge>
    <edge id=":4459074743_0" function="internal">
        <lane id=":4459074743_0_0" index="0" disallow="tram rail_urban rail rail_electric rail_fast ship" speed="19.44" length="8.20" shape="1122.84,383.95 1122.28,386.29 1121.52,387.79 1120.74,389.30 1120.12,391.62"/>
    </edge>
    <edge id=":4491733717_0" function="internal">
        <lane id=":4491733717_0_0" index="0" allow="private emergency authority army vip passenger hov taxi bus coach delivery truck trailer motorcycle evehicle custom1 custom2" speed="18.05" length="0.29" shape="364.26,472.46 364.50,472.61"/>
        <lane id=":4491733717_0_1" index="1" allow="private emergency authority army vip passenger hov taxi bus coach delivery truck trailer motorcycle evehicle custom1 custom2" speed="18.05" length="0.29" shape="365.88,469.71 366.15,469.86"/>
    </edge>
    <edge id=":4600849683_0" function="internal">
        <lane id=":4600849683_0_0" index="0" allow="private emergency authority army vip passenger hov taxi bus coach delivery truck trailer motorcycle evehicle custom1 custom2" speed="13.89" length="8.01" shape="975.19,886.30 975.86,884.06 976.71,882.65 977.62,881.25 978.45,879.04"/>
    </edge>
    <edge id=":478293979-AddedOffRampNode_0" function="internal">
        <lane id=":478293979-AddedOffRampNode_0_0" index="0" allow="private emergency authority army vip passenger hov taxi bus coach delivery truck trailer motorcycle evehicle custom1 custom2" speed="25.00" length="8.16" shape="1332.06,552.19 1329.61,552.73 1327.75,552.34 1325.90,551.96 1323.45,552.50"/>
        <lane id=":478293979-AddedOffRampNode_0_1" index="1" allow="private emergency authority army vip passenger hov taxi bus coach delivery truck trailer motorcycle evehicle custom1 custom2" speed="25.00" length="8.16" shape="1332.06,552.19 1324.74,555.42"/>
        <lane id=":478293979-AddedOffRampNode_0_2" index="2" allow="private emergency authority army vip passenger hov taxi bus coach delivery truck trailer motorcycle evehicle custom1 custom2" speed="25.00" length="8.16" shape="1333.35,555.12 1326.04,558.35"/>
        <lane id=":478293979-AddedOffRampNode_0_3" index="3" allow="private emergency authority army vip passenger hov taxi bus coach delivery truck trailer motorcycle evehicle custom1 custom2" speed="25.00" length="8.16" shape="1334.65,558.04 1327.33,561.28"/>
        <lane id=":478293979-AddedOffRampNode_0_4" index="4" allow="private emergency authority army vip passenger hov taxi bus coach delivery truck trailer motorcycle evehicle custom1 custom2" speed="25.00" length="8.16" shape="1335.94,560.97 1328.63,564.20"/>
    </edge>
    <edge id=":5145467887_0" function="internal">
        <lane id=":5145467887_0_0" index="0" disallow="tram rail_urban rail rail_electric rail_fast ship" speed="19.44" length="8.07" shape="1110.81,500.38 1111.89,498.26 1112.96,496.96 1113.99,495.65 1114.96,493.48"/>
        <lane id=":5145467887_0_1" index="1" disallow="tram rail_urban rail rail_electric rail_fast ship" speed="19.44" length="8.07" shape="1110.81,500.38 1111.41,498.12 1111.44,496.46 1111.42,494.80 1111.91,492.49"/>
    </edge>
    <edge id=":5217031734_0" function="internal">
        <lane id=":5217031734_0_0" index="0" disallow="tram rail_urban rail rail_electric rail_fast ship" speed="16.66" length="7.13" shape="1128.61,425.71 1128.99,423.66 1129.53,422.33 1130.33,421.08 1131.44,419.27"/>
    </edge>
    <edge id=":5217031734_1" function="internal">
        <lane id=":5217031734_1_0" index="0" disallow="tram rail_urban rail rail_electric rail_fast ship" speed="19.44" length="7.69" shape="1125.43,425.34 1125.95,423.14 1126.67,421.73 1127.39,420.31 1127.90,418.11"/>
    </edge>
    <edge id=":5217031741_0" function="internal">
        <lane id=":5217031741_0_0" index="0" disallow="tram rail_urban rail rail_electric rail_fast ship" speed="11.98" length="8.63" shape="1137.50,368.63 1136.11,366.46 1135.07,364.92 1134.48,363.29 1134.46,360.83"/>
    </edge>
    <edge id=":5217031741_1" function="internal">
        <lane id=":5217031741_1_0" index="0" disallow="tram rail_urban rail rail_electric rail_fast ship" speed="19.44" length="8.64" shape="1133.63,369.44 1134.46,360.83"/>
    </edge>
    <edge id=":5726683755_0" function="internal">
        <lane id=":5726683755_0_0" index="0" allow="private emergency authority army vip passenger hov taxi bus coach delivery truck trailer motorcycle evehicle custom1 custom2" speed="13.89" length="18.95" shape="957.42,1062.64 954.82,1057.74 953.29,1054.26 952.10,1050.63 950.52,1045.30"/>
        <lane id=":5726683755_0_1" index="1" allow="private emergency authority army vip passenger hov taxi bus coach delivery truck trailer motorcycle evehicle custom1 custom2" speed="13.89" length="18.95" shape="954.51,1063.99 951.85,1058.97 950.29,1055.40 949.08,1051.68 947.46,1046.23"/>
    </edge>
    <edge id=":5726683755_2" function="internal">
        <lane id=":5726683755_2_0" index="0" allow="private emergency authority army vip passenger hov taxi bus coach delivery truck trailer motorcycle evehicle custom1 custom2" speed="13.89" length="18.94" shape="949.74,1065.19 949.94,1059.49 949.79,1055.56 949.04,1051.71 947.46,1046.23"/>
        <lane id=":5726683755_2_1" index="1" allow="private emergency authority army vip passenger hov taxi bus coach delivery truck trailer motorcycle evehicle custom1 custom2" speed="13.89" length="18.94" shape="946.52,1065.48 946.73,1059.97 946.61,1056.17 945.91,1052.45 944.39,1047.16"/>
    </edge>
    <edge id=":5991894323_0" function="internal">
        <lane id=":5991894323_0_0" index="0" allow="private emergency authority army vip passenger hov taxi bus coach delivery truck trailer motorcycle evehicle custom1 custom2" speed="19.44" length="8.21" shape="470.44,574.65 471.54,576.78 471.95,578.42 472.34,580.07 473.41,582.22"/>
        <lane id=":5991894323_0_1" index="1" allow="private emergency authority army vip passenger hov taxi bus coach delivery truck trailer motorcycle evehicle custom1 custom2" speed="19.44" length="8.21" shape="473.12,572.90 474.23,575.04 474.64,576.69 475.04,578.34 476.12,580.51"/>
    </edge>
    <edge id=":5992186786_0" function="internal">
        <lane id=":5992186786_0_0" index="0" allow="private emergency authority army vip passenger hov taxi bus coach delivery truck trailer motorcycle evehicle custom1 custom2" speed="18.05" length="8.38" shape="1144.86,1232.67 1147.11,1232.99 1148.71,1232.86 1150.30,1232.78 1152.50,1233.24"/>
        <lane id=":5992186786_0_1" index="1" allow="private emergency authority army vip passenger hov taxi bus coach delivery truck trailer motorcycle evehicle custom1 custom2" speed="18.05" length="8.38" shape="1145.66,1229.57 1147.97,1229.91 1149.61,1229.79 1151.24,1229.72 1153.50,1230.20"/>