<?xml version="1.0" encoding="UTF-8"?>

<!-- generated on 2023-07-17 10:53:22 by Eclipse SUMO netconvert Version 1.17.0
<configuration xmlns:xsi="http://www.w3.org/2001/XMLSchema-instance" xsi:noNamespaceSchemaLocation="http://sumo.dlr.de/xsd/netconvertConfiguration.xsd">

    <input>
        <sumo-net-file value="osm.net.xml.gz"/>
    </input>

    <output>
        <output-file value="osm.net.xml"/>
        <output.street-names value="true"/>
    </output>

    <processing>
        <geometry.min-radius.fix.railways value="false"/>
        <geometry.max-grade.fix value="false"/>
        <offset.disable-normalization value="true"/>
        <lefthand value="1"/>
    </processing>

    <junctions>
        <no-turnarounds value="true"/>
        <junctions.corner-detail value="5"/>
        <junctions.limit-turn-speed value="5.50"/>
        <rectangular-lane-cut value="0"/>
    </junctions>

    <pedestrian>
        <walkingareas value="0"/>
    </pedestrian>

</configuration>
-->

<net version="1.16" junctionCornerDetail="5" lefthand="true" limitTurnSpeed="5.50" xmlns:xsi="http://www.w3.org/2001/XMLSchema-instance" xsi:noNamespaceSchemaLocation="http://sumo.dlr.de/xsd/net_file.xsd">

    <location netOffset="-374355.91,-142452.99" convBoundary="0.00,0.00,1411.04,1061.95" origBoundary="103.870655,1.288565,103.883336,1.298172" projParameter="+proj=utm +zone=48 +ellps=WGS84 +datum=WGS84 +units=m +no_defs"/>

    <type id="highway.bridleway" priority="1" numLanes="1" speed="2.78" allow="pedestrian" oneway="1" width="2.00"/>
    <type id="highway.bus_guideway" priority="1" numLanes="1" speed="27.78" allow="bus" oneway="1"/>
    <type id="highway.cycleway" priority="1" numLanes="1" speed="5.56" allow="bicycle" oneway="0" width="1.00"/>
    <type id="highway.footway" priority="1" numLanes="1" speed="2.78" allow="pedestrian" oneway="1" width="2.00"/>
    <type id="highway.ford" priority="1" numLanes="1" speed="2.78" allow="army" oneway="0"/>
    <type id="highway.living_street" priority="2" numLanes="1" speed="2.78" disallow="tram rail_urban rail rail_electric rail_fast ship" oneway="0"/>
    <type id="highway.motorway" priority="14" numLanes="2" speed="39.44" allow="private emergency authority army vip passenger hov taxi bus coach delivery truck trailer motorcycle evehicle custom1 custom2" oneway="1"/>
    <type id="highway.motorway_link" priority="9" numLanes="1" speed="22.22" allow="private emergency authority army vip passenger hov taxi bus coach delivery truck trailer motorcycle evehicle custom1 custom2" oneway="1"/>
    <type id="highway.path" priority="1" numLanes="1" speed="5.56" allow="pedestrian bicycle" oneway="0" width="2.00"/>
    <type id="highway.pedestrian" priority="1" numLanes="1" speed="2.78" allow="pedestrian" oneway="1" width="2.00"/>
    <type id="highway.primary" priority="12" numLanes="2" speed="27.78" disallow="tram rail_urban rail rail_electric rail_fast ship" oneway="0"/>
    <type id="highway.primary_link" priority="7" numLanes="1" speed="22.22" disallow="tram rail_urban rail rail_electric rail_fast ship" oneway="0"/>
    <type id="highway.raceway" priority="15" numLanes="2" speed="83.33" allow="vip" oneway="0"/>
    <type id="highway.residential" priority="3" numLanes="1" speed="13.89" disallow="tram rail_urban rail rail_electric rail_fast ship" oneway="0"/>
    <type id="highway.secondary" priority="11" numLanes="1" speed="27.78" disallow="tram rail_urban rail rail_electric rail_fast ship" oneway="0"/>
    <type id="highway.secondary_link" priority="6" numLanes="1" speed="22.22" disallow="tram rail_urban rail rail_electric rail_fast ship" oneway="0"/>
    <type id="highway.service" priority="1" numLanes="1" speed="5.56" allow="pedestrian delivery bicycle" oneway="0"/>
    <type id="highway.stairs" priority="1" numLanes="1" speed="1.39" allow="pedestrian" oneway="1" width="2.00"/>
    <type id="highway.step" priority="1" numLanes="1" speed="1.39" allow="pedestrian" oneway="1" width="2.00"/>
    <type id="highway.steps" priority="1" numLanes="1" speed="1.39" allow="pedestrian" oneway="1" width="2.00"/>
    <type id="highway.tertiary" priority="10" numLanes="1" speed="22.22" disallow="tram rail_urban rail rail_electric rail_fast ship" oneway="0"/>
    <type id="highway.tertiary_link" priority="5" numLanes="1" speed="22.22" disallow="tram rail_urban rail rail_electric rail_fast ship" oneway="0"/>
    <type id="highway.track" priority="1" numLanes="1" speed="5.56" allow="pedestrian motorcycle moped bicycle" oneway="0"/>
    <type id="highway.trunk" priority="13" numLanes="2" speed="27.78" disallow="pedestrian bicycle tram rail_urban rail rail_electric rail_fast ship" oneway="0"/>
    <type id="highway.trunk_link" priority="8" numLanes="1" speed="22.22" disallow="pedestrian bicycle tram rail_urban rail rail_electric rail_fast ship" oneway="0"/>
    <type id="highway.unclassified" priority="4" numLanes="1" speed="13.89" disallow="tram rail_urban rail rail_electric rail_fast ship" oneway="0"/>
    <type id="highway.unsurfaced" priority="1" numLanes="1" speed="8.33" disallow="tram rail_urban rail rail_electric rail_fast ship" oneway="0"/>
    <type id="railway.highspeed" priority="21" numLanes="1" speed="69.44" allow="rail_fast" oneway="1"/>
    <type id="railway.light_rail" priority="19" numLanes="1" speed="27.78" allow="rail_urban" oneway="1"/>
    <type id="railway.preserved" priority="16" numLanes="1" speed="27.78" allow="rail" oneway="1"/>
    <type id="railway.rail" priority="20" numLanes="1" speed="44.44" allow="rail" oneway="1"/>
    <type id="railway.subway" priority="18" numLanes="1" speed="27.78" allow="rail_urban" oneway="1"/>
    <type id="railway.tram" priority="17" numLanes="1" speed="13.89" allow="tram" oneway="1"/>

    <edge id=":1539812607_0" function="internal">
        <lane id=":1539812607_0_0" index="0" allow="private emergency authority army vip passenger hov taxi bus coach delivery truck trailer motorcycle evehicle custom1 custom2" speed="15.28" length="33.94" shape="592.44,802.97 621.88,819.86"/>
    </edge>
    <edge id=":1539812607_1" function="internal">
        <lane id=":1539812607_1_0" index="0" allow="private emergency authority army vip passenger hov taxi bus coach delivery truck trailer motorcycle evehicle custom1 custom2" speed="15.28" length="33.87" shape="592.44,802.97 599.69,806.64 607.83,810.21 616.12,813.45 623.81,816.09"/>
        <lane id=":1539812607_1_1" index="1" allow="private emergency authority army vip passenger hov taxi bus coach delivery truck trailer motorcycle evehicle custom1 custom2" speed="15.28" length="33.87" shape="593.98,800.17 601.19,803.81 609.22,807.33 617.39,810.51 625.03,813.12"/>
    </edge>
    <edge id=":1637003462_0" function="internal">
        <lane id=":1637003462_0_0" index="0" allow="private emergency authority army vip passenger hov taxi bus coach delivery truck trailer motorcycle evehicle custom1 custom2" speed="13.89" length="10.72" shape="946.92,817.75 949.93,817.47 952.12,817.23 954.37,817.08 957.60,817.04"/>
    </edge>
    <edge id=":1637003462_1" function="internal">
        <lane id=":1637003462_1_0" index="0" allow="private emergency authority army vip passenger hov taxi bus coach delivery truck trailer motorcycle evehicle custom1 custom2" speed="13.89" length="10.79" shape="946.86,814.37 949.89,814.38 952.10,814.17 954.37,813.94 957.63,813.84"/>
    </edge>
    <edge id=":173767678-AddedOffRampNode_0" function="internal">
        <lane id=":173767678-AddedOffRampNode_0_0" index="0" allow="private emergency authority army vip passenger hov taxi bus coach delivery truck trailer motorcycle evehicle custom1 custom2" speed="22.22" length="8.16" shape="1062.01,761.51 1059.58,760.90 1058.09,759.73 1056.60,758.56 1054.17,757.94"/>
        <lane id=":173767678-AddedOffRampNode_0_1" index="1" allow="private emergency authority army vip passenger hov taxi bus coach delivery truck trailer motorcycle evehicle custom1 custom2" speed="22.22" length="8.16" shape="1062.01,761.51 1054.02,761.14"/>
        <lane id=":173767678-AddedOffRampNode_0_2" index="2" allow="private emergency authority army vip passenger hov taxi bus coach delivery truck trailer motorcycle evehicle custom1 custom2" speed="22.22" length="8.16" shape="1061.87,764.70 1053.88,764.34"/>
        <lane id=":173767678-AddedOffRampNode_0_3" index="3" allow="private emergency authority army vip passenger hov taxi bus coach delivery truck trailer motorcycle evehicle custom1 custom2" speed="22.22" length="8.16" shape="1061.72,767.90 1053.73,767.53"/>
        <lane id=":173767678-AddedOffRampNode_0_4" index="4" allow="private emergency authority army vip passenger hov taxi bus coach delivery truck trailer motorcycle evehicle custom1 custom2" speed="22.22" length="8.16" shape="1061.58,771.10 1053.58,770.73"/>
    </edge>
    <edge id=":247008488_0" function="internal">
        <lane id=":247008488_0_0" index="0" disallow="tram rail_urban rail rail_electric rail_fast ship" speed="11.11" length="8.84" shape="225.28,940.51 222.81,940.95 221.25,942.02 219.69,943.11 217.22,943.63"/>
    </edge>
    <edge id=":247008488_1" function="internal">
        <lane id=":247008488_1_0" index="0" disallow="tram rail_urban rail rail_electric rail_fast ship" speed="11.11" length="7.57" shape="217.24,946.83 224.81,947.08"/>
    </edge>
    <edge id=":2521018789_0" function="internal">
        <lane id=":2521018789_0_0" index="0" allow="private emergency authority army vip passenger hov taxi bus coach delivery truck trailer motorcycle evehicle custom1 custom2" speed="19.45" length="2.63" shape="1022.63,793.26 1023.46,793.38 1024.04,793.46 1024.61,793.52 1025.46,793.56"/>
        <lane id=":2521018789_0_1" index="1" allow="private emergency authority army vip passenger hov taxi bus coach delivery truck trailer motorcycle evehicle custom1 custom2" speed="19.45" length="2.63" shape="1023.19,790.11 1023.90,790.21 1024.38,790.28 1024.87,790.33 1025.58,790.37"/>
    </edge>
    <edge id=":2521018789_2" function="internal">
        <lane id=":2521018789_2_0" index="0" allow="private emergency authority army vip passenger hov taxi bus coach delivery truck trailer motorcycle evehicle custom1 custom2" speed="25.00" length="1.75" shape="1023.76,786.96 1024.33,787.06 1024.73,787.11 1025.13,787.14 1025.71,787.17"/>
        <lane id=":2521018789_2_1" index="1" allow="private emergency authority army vip passenger hov taxi bus coach delivery truck trailer motorcycle evehicle custom1 custom2" speed="25.00" length="1.75" shape="1024.32,783.81 1024.77,783.89 1025.08,783.93 1025.39,783.95 1025.84,783.97"/>
    </edge>
    <edge id=":2521023068_0" function="internal">
        <lane id=":2521023068_0_0" index="0" allow="private emergency authority army vip passenger hov taxi bus coach delivery truck trailer motorcycle evehicle custom1 custom2" speed="18.05" length="18.51" shape="787.69,730.38 784.05,729.79 780.20,728.85 775.61,727.58 769.72,726.01"/>
    </edge>
    <edge id=":2521023068_1" function="internal">
        <lane id=":2521023068_1_0" index="0" allow="private emergency authority army vip passenger hov taxi bus coach delivery truck trailer motorcycle evehicle custom1 custom2" speed="19.44" length="9.10" shape="777.53,732.89 775.05,731.58 773.35,730.65 771.60,729.90 768.93,729.11"/>
        <lane id=":2521023068_1_1" index="1" allow="private emergency authority army vip passenger hov taxi bus coach delivery truck trailer motorcycle evehicle custom1 custom2" speed="19.44" length="9.10" shape="776.11,735.76 773.81,734.54 772.24,733.66 770.61,732.95 768.13,732.20"/>
    </edge>
    <edge id=":2521023071_0" function="internal">
        <lane id=":2521023071_0_0" index="0" allow="private emergency authority army vip passenger hov taxi bus coach delivery truck trailer motorcycle evehicle custom1 custom2" speed="20.83" length="5.02" shape="959.67,753.63 958.18,753.60 957.16,753.67 956.15,753.83 954.68,754.08"/>
        <lane id=":2521023071_0_1" index="1" allow="private emergency authority army vip passenger hov taxi bus coach delivery truck trailer motorcycle evehicle custom1 custom2" speed="20.83" length="4.38" shape="959.52,756.83 958.22,756.80 957.34,756.87 956.45,757.02 955.17,757.24"/>
    </edge>
    <edge id=":2521023071_2" function="internal">
        <lane id=":2521023071_2_0" index="0" allow="private emergency authority army vip passenger hov taxi bus coach delivery truck trailer motorcycle evehicle custom1 custom2" speed="22.22" length="3.85" shape="959.37,760.02 958.13,759.72 957.36,759.15 956.59,758.60 955.34,758.35"/>
        <lane id=":2521023071_2_1" index="1" allow="private emergency authority army vip passenger hov taxi bus coach delivery truck trailer motorcycle evehicle custom1 custom2" speed="22.22" length="3.85" shape="959.23,763.22 958.17,762.92 957.54,762.36 956.90,761.80 955.84,761.55"/>
        <lane id=":2521023071_2_2" index="2" allow="private emergency authority army vip passenger hov taxi bus coach delivery truck trailer motorcycle evehicle custom1 custom2" speed="22.22" length="3.85" shape="959.08,766.42 956.34,764.75"/>
    </edge>
    <edge id=":2521922481_0" function="internal">
        <lane id=":2521922481_0_0" index="0" allow="private emergency authority army vip passenger hov taxi bus coach delivery truck trailer motorcycle evehicle custom1 custom2" speed="19.44" length="7.97" shape="562.85,497.15 562.45,494.89 562.58,493.29 562.76,491.66 562.53,489.36"/>
        <lane id=":2521922481_0_1" index="1" allow="private emergency authority army vip passenger hov taxi bus coach delivery truck trailer motorcycle evehicle custom1 custom2" speed="19.44" length="7.97" shape="559.78,498.06 559.36,495.73 559.47,494.07 559.65,492.40 559.40,490.03"/>
    </edge>
    <edge id=":25451929_0" function="internal">
        <lane id=":25451929_0_0" index="0" allow="private emergency authority army vip passenger hov taxi bus coach delivery truck trailer motorcycle evehicle custom1 custom2" speed="20.83" length="7.79" shape="203.32,733.19 209.81,737.14"/>
        <lane id=":25451929_0_1" index="1" allow="private emergency authority army vip passenger hov taxi bus coach delivery truck trailer motorcycle evehicle custom1 custom2" speed="20.83" length="7.79" shape="202.97,736.37 209.67,740.34"/>
        <lane id=":25451929_0_2" index="2" allow="private emergency authority army vip passenger hov taxi bus coach delivery truck trailer motorcycle evehicle custom1 custom2" speed="20.83" length="7.79" shape="202.62,739.55 209.52,743.54"/>
    </edge>
    <edge id=":25451929_3" function="internal">
        <lane id=":25451929_3_0" index="0" allow="private emergency authority army vip passenger hov taxi bus coach delivery truck trailer motorcycle evehicle custom1 custom2" speed="7.77" length="1.24" shape="212.33,728.16 211.76,727.84 211.35,727.67 210.90,727.59 210.26,727.55"/>
        <lane id=":25451929_3_1" index="1" allow="private emergency authority army vip passenger hov taxi bus coach delivery truck trailer motorcycle evehicle custom1 custom2" speed="16.66" length="1.24" shape="210.73,730.93 210.56,730.84 210.43,730.79 210.30,730.76 210.11,730.75"/>
        <lane id=":25451929_3_2" index="2" allow="private emergency authority army vip passenger hov taxi bus coach delivery truck trailer motorcycle evehicle custom1 custom2" speed="16.66" length="1.24" shape="209.13,733.70 209.96,733.95"/>
    </edge>
    <edge id=":25455287_0" function="internal">
        <lane id=":25455287_0_0" index="0" allow="private emergency authority army vip passenger hov taxi bus coach delivery truck trailer motorcycle evehicle custom1 custom2" speed="18.05" length="3.66" shape="370.75,766.96 371.84,766.99 372.58,767.00 373.33,766.96 374.41,766.90"/>
    </edge>
    <edge id=":25455287_1" function="internal">
        <lane id=":25455287_1_0" index="0" allow="private emergency authority army vip passenger hov taxi bus coach delivery truck trailer motorcycle evehicle custom1 custom2" speed="23.61" length="3.08" shape="370.86,763.77 374.23,763.81"/>
        <lane id=":25455287_1_1" index="1" allow="private emergency authority army vip passenger hov taxi bus coach delivery truck trailer motorcycle evehicle custom1 custom2" speed="23.61" length="3.08" shape="370.97,760.57 374.05,760.62"/>
        <lane id=":25455287_1_2" index="2" allow="private emergency authority army vip passenger hov taxi bus coach delivery truck trailer motorcycle evehicle custom1 custom2" speed="23.61" length="3.08" shape="371.07,757.37 373.87,757.42"/>
    </edge>
    <edge id=":2670196622_0" function="internal">
        <lane id=":2670196622_0_0" index="0" allow="private emergency authority army vip passenger hov taxi bus coach delivery truck trailer motorcycle evehicle custom1 custom2" speed="15.28" length="0.10" shape="1036.11,750.50 1036.11,750.50"/>
    </edge>
    <edge id=":366653031_0" function="internal">
        <lane id=":366653031_0_0" index="0" allow="private emergency authority army vip passenger hov taxi bus coach delivery truck trailer motorcycle evehicle custom1 custom2" speed="16.66" length="3.14" shape="576.82,712.71 577.94,715.64"/>
    </edge>
    <edge id=":366653031_1" function="internal">
        <lane id=":366653031_1_0" index="0" allow="private emergency authority army vip passenger hov taxi bus coach delivery truck trailer motorcycle evehicle custom1 custom2" speed="22.22" length="3.21" shape="579.96,711.62 580.97,714.63"/>
        <lane id=":366653031_1_1" index="1" allow="private emergency authority army vip passenger hov taxi bus coach delivery truck trailer motorcycle evehicle custom1 custom2" speed="22.22" length="3.21" shape="582.98,710.58 584.01,713.62"/>
        <lane id=":366653031_1_2" index="2" allow="private emergency authority army vip passenger hov taxi bus coach delivery truck trailer motorcycle evehicle custom1 custom2" speed="22.22" length="3.21" shape="586.01,709.54 587.05,712.61"/>
    </edge>
    <edge id=":385613829_0" function="internal">
        <lane id=":385613829_0_0" index="0" allow="private emergency authority army vip passenger hov taxi bus coach delivery truck trailer motorcycle evehicle custom1 custom2" speed="22.22" length="9.43" shape="591.91,828.97 593.79,830.84 594.42,832.70 594.94,834.69 596.44,837.00"/>
    </edge>
    <edge id=":4602559707_0" function="internal">
        <lane id=":4602559707_0_0" index="0" allow="private emergency authority army vip passenger hov taxi bus coach delivery truck trailer motorcycle evehicle custom1 custom2" speed="13.89" length="6.47" shape="410.21,600.44 408.67,601.80 407.38,602.50 406.19,603.28 404.94,604.85"/>
        <lane id=":4602559707_0_1" index="1" allow="private emergency authority army vip passenger hov taxi bus coach delivery truck trailer motorcycle evehicle custom1 custom2" speed="13.89" length="6.47" shape="412.59,602.58 411.16,603.81 409.95,604.42 408.83,605.10 407.67,606.52"/>
        <lane id=":4602559707_0_2" index="2" allow="private emergency authority army vip passenger hov taxi bus coach delivery truck trailer motorcycle evehicle custom1 custom2" speed="13.89" length="6.47" shape="412.59,602.58 411.62,604.04 411.33,605.26 411.12,606.54 410.40,608.18"/>
    </edge>
    <edge id=":49961799-AddedOnRampNode_0" function="internal">
        <lane id=":49961799-AddedOnRampNode_0_0" index="0" allow="private emergency authority army vip passenger hov taxi bus coach delivery truck trailer motorcycle evehicle custom1 custom2" speed="19.44" length="8.00" shape="114.56,726.33 106.57,725.96"/>
        <lane id=":49961799-AddedOnRampNode_0_1" index="1" allow="private emergency authority army vip passenger hov taxi bus coach delivery truck trailer motorcycle evehicle custom1 custom2" speed="19.44" length="8.00" shape="114.41,729.53 106.42,729.16"/>
        <lane id=":49961799-AddedOnRampNode_0_2" index="2" allow="private emergency authority army vip passenger hov taxi bus coach delivery truck trailer motorcycle evehicle custom1 custom2" speed="19.44" length="8.00" shape="114.26,732.72 106.27,732.36"/>
        <lane id=":49961799-AddedOnRampNode_0_3" index="3" allow="private emergency authority army vip passenger hov taxi bus coach delivery truck trailer motorcycle evehicle custom1 custom2" speed="19.44" length="8.00" shape="114.12,735.92 106.12,735.55"/>
        <lane id=":49961799-AddedOnRampNode_0_4" index="4" allow="private emergency authority army vip passenger hov taxi bus coach delivery truck trailer motorcycle evehicle custom1 custom2" speed="19.44" length="8.00" shape="113.97,739.12 105.98,738.75"/>
    </edge>
    <edge id=":5280193915_0" function="internal">
        <lane id=":5280193915_0_0" index="0" allow="private emergency authority army vip passenger hov taxi bus coach delivery truck trailer motorcycle evehicle custom1 custom2" speed="22.22" length="8.19" shape="609.36,709.40 608.71,707.12 608.64,705.46 608.59,703.78 608.00,701.48"/>
        <lane id=":5280193915_0_1" index="1" allow="private emergency authority army vip passenger hov taxi bus coach delivery truck trailer motorcycle evehicle custom1 custom2" speed="22.22" length="8.19" shape="606.39,710.60 605.73,708.30 605.66,706.62 605.60,704.93 605.00,702.61"/>
        <lane id=":5280193915_0_2" index="2" allow="private emergency authority army vip passenger hov taxi bus coach delivery truck trailer motorcycle evehicle custom1 custom2" speed="22.22" length="8.19" shape="603.42,711.79 602.76,709.47 602.68,707.77 602.62,706.07 602.00,703.73"/>
        <lane id=":5280193915_0_3" index="3" allow="private emergency authority army vip passenger hov taxi bus coach delivery truck trailer motorcycle evehicle custom1 custom2" speed="22.22" length="8.19" shape="603.42,711.79 602.29,709.64 601.18,708.34 600.09,707.02 599.01,704.85"/>
    </edge>
    <edge id=":591879607_0" function="internal">
        <lane id=":591879607_0_0" index="0" allow="private emergency authority army vip passenger hov taxi bus coach delivery truck trailer motorcycle evehicle custom1 custom2" speed="13.89" length="7.07" shape="647.93,731.88 647.55,729.83 647.61,728.35 647.58,726.90 646.93,724.95"/>
    </edge>
    <edge id=":591879618_0" function="internal">
        <lane id=":591879618_0_0" index="0" allow="private emergency authority army vip passenger hov taxi bus coach delivery truck trailer motorcycle evehicle custom1 custom2" speed="13.89" length="7.75" shape="493.65,575.46 491.44,574.80 490.01,574.02 488.57,573.31 486.33,572.87"/>
        <lane id=":591879618_0_1" index="1" allow="private emergency authority army vip passenger hov taxi bus coach delivery truck trailer motorcycle evehicle custom1 custom2" speed="13.89" length="7.75" shape="493.65,575.46 491.42,575.31 489.88,575.62 488.32,576.00 486.06,576.06"/>
    </edge>
    <edge id=":5988779439_0" function="internal">
        <lane id=":5988779439_0_0" index="0" allow="private emergency authority army vip passenger hov taxi bus coach delivery truck trailer motorcycle evehicle custom1 custom2" speed="22.22" length="8.18" shape="307.80,761.71 310.22,762.25 311.72,763.38 313.21,764.53 315.63,765.11"/>
        <lane id=":5988779439_0_1" index="1" allow="private emergency authority army vip passenger hov taxi bus coach delivery truck trailer motorcycle evehicle custom1 custom2" speed="22.22" length="8.18" shape="307.80,761.71 315.74,761.91"/>
        <lane id=":5988779439_0_2" index="2" allow="private emergency authority army vip passenger hov taxi bus coach delivery truck trailer motorcycle evehicle custom1 custom2" speed="22.22" length="8.18" shape="307.85,758.51 315.85,758.72"/>
        <lane id=":5988779439_0_3" index="3" allow="private emergency authority army vip passenger hov taxi bus coach delivery truck trailer motorcycle evehicle custom1 custom2" speed="22.22" length="8.18" shape="307.91,755.31 315.96,755.52"/>
    </edge>
    <edge id=":5991965360_0" function="internal">
        <lane id=":5991965360_0_0" index="0" allow="private emergency authority army vip passenger hov taxi bus coach delivery truck trailer motorcycle evehicle custom1 custom2" speed="25.00" length="8.21" shape="811.21,774.37 813.59,774.65 815.18,775.23 816.76,775.81 819.15,776.13"/>
        <lane id=":5991965360_0_1" index="1" allow="private emergency authority army vip passenger hov taxi bus coach delivery truck trailer motorcycle evehicle custom1 custom2" speed="25.00" length="8.21" shape="811.24,771.17 813.64,771.45 815.24,772.03 816.84,772.61 819.24,772.93"/>
    </edge>
    <edge id=":6064305393_0" function="internal">
        <lane id=":6064305393_0_0" index="0" allow="private emergency authority army vip passenger hov taxi bus coach delivery truck trailer motorcycle evehicle custom1 custom2" speed="16.66" length="7.11" shape="615.19,742.51 613.11,742.53 611.70,742.83 610.33,743.37 608.34,744.09"/>
    </edge>
    <edge id=":6064305393_1" function="internal">
        <lane id=":6064305393_1_0" index="0" allow="private emergency authority army vip passenger hov taxi bus coach delivery truck trailer motorcycle evehicle custom1 custom2" speed="22.22" length="4.89" shape="615.03,745.71 608.87,745.63"/>
        <lane id=":6064305393_1_1" index="1" allow="private emergency authority army vip passenger hov taxi bus coach delivery truck trailer motorcycle evehicle custom1 custom2" speed="22.22" length="4.89" shape="614.86,748.90 609.97,748.82"/>
        <lane id=":6064305393_1_2" index="2" allow="private emergency authority army vip passenger hov taxi bus coach delivery truck trailer motorcycle evehicle custom1 custom2" speed="22.22" length="4.89" shape="614.70,752.10 611.07,752.02"/>
    </edge>
    <edge id=":6072957606_0" function="internal">
        <lane id=":6072957606_0_0" index="0" allow="private emergency authority army vip passenger hov taxi bus coach delivery truck trailer motorcycle evehicle custom1 custom2" speed="22.22" length="8.20" shape="832.45,755.51 830.02,754.91 828.53,753.74 827.05,752.57 824.62,751.95"/>
        <lane id=":6072957606_0_1" index="1" allow="private emergency authority army vip passenger hov taxi bus coach delivery truck trailer motorcycle evehicle custom1 custom2" speed="22.22" length="8.20" shape="832.45,755.51 824.47,755.15"/>
        <lane id=":6072957606_0_2" index="2" allow="private emergency authority army vip passenger hov taxi bus coach delivery truck trailer motorcycle evehicle custom1 custom2" speed="22.22" length="8.20" shape="832.31,758.71 824.32,758.35"/>
        <lane id=":6072957606_0_3" index="3" allow="private emergency authority army vip passenger hov taxi bus coach delivery truck trailer motorcycle evehicle custom1 custom2" speed="22.22" length="8.20" shape="832.18,761.90 824.16,761.54"/>
    </edge>
    <edge id=":633601611-AddedOnRampNode_0" function="internal">
        <lane id=":633601611-AddedOnRampNode_0_0" index="0" allow="private emergency authority army vip passenger hov taxi bus coach delivery truck trailer motorcycle evehicle custom1 custom2" speed="22.22" length="8.00" shape="610.78,804.31 613.31,811.90"/>
        <lane id=":633601611-AddedOnRampNode_0_1" index="1" allow="private emergency authority army vip passenger hov taxi bus coach delivery truck trailer motorcycle evehicle custom1 custom2" speed="22.22" length="8.00" shape="613.82,803.30 616.34,810.89"/>
        <lane id=":633601611-AddedOnRampNode_0_2" index="2" allow="private emergency authority army vip passenger hov taxi bus coach delivery truck trailer motorcycle evehicle custom1 custom2" speed="22.22" length="8.00" shape="616.85,802.29 619.38,809.88"/>
    </edge>
    <edge id=":6585218078_0" function="internal">
        <lane id=":6585218078_0_0" index="0" disallow="tram rail_urban rail rail_electric rail_fast ship" speed="11.11" length="8.20" shape="537.94,917.02 539.38,918.95 540.07,920.50 540.76,922.05 542.22,923.97"/>
        <lane id=":6585218078_0_1" index="1" disallow="tram rail_urban rail rail_electric rail_fast ship" speed="11.11" length="8.20" shape="537.94,917.02 539.75,918.61 541.24,919.41 542.73,920.20 544.55,921.78"/>
    </edge>

    <edge id="-1090439032" from="247008488" to="3967989836" name="Tanjong Rhu Road" priority="10" type="highway.tertiary" shape="221.09,945.20 211.46,945.27 198.36,945.38 196.20,945.39 186.96,945.46 156.98,946.16 123.99,945.68">
        <lane id="-1090439032_0" index="0" disallow="tram rail_urban rail rail_electric rail_fast ship" speed="11.11" length="93.22" shape="217.22,943.63 211.45,943.67 198.35,943.78 196.19,943.79 186.94,943.86 156.97,944.56 124.01,944.08">
            <param key="origId" value="1090439032 639379442 639962164 639379441"/>
        </lane>
    </edge>
    <edge id="1155729627" from="247008488" to="6585218078" name="Tanjong Rhu Road" priority="10" type="highway.tertiary" spreadType="center" shape="220.93,946.79 278.75,951.02 336.43,951.77 364.01,953.42 387.87,954.85 425.29,956.55 447.00,957.54 460.54,957.05 468.02,954.50 473.33,950.46 476.92,947.34 479.32,945.26 483.18,941.36 504.63,917.45 507.15,914.93 514.54,908.77 517.51,906.84 521.99,905.34 525.76,905.77 534.43,913.20 540.65,919.96">
        <lane id="1155729627_0" index="0" disallow="tram rail_urban rail rail_electric rail_fast ship" speed="11.11" length="338.01" shape="224.81,947.08 278.75,951.02 336.43,951.77 364.01,953.42 387.87,954.85 425.29,956.55 447.00,957.54 460.54,957.05 468.02,954.50 473.33,950.46 476.92,947.34 479.32,945.26 483.18,941.36 504.63,917.45 507.15,914.93 514.54,908.77 517.51,906.84 521.99,905.34 525.76,905.77 534.43,913.20 537.94,917.02">
            <param key="origId" value="1155729627 542143031 542143031 1168209437 1163515691"/>
        </lane>
        <param key="origTo" value="5171938789"/>
    </edge>