<?xml version="1.0" encoding="UTF-8"?>

<!-- generated on 2023-07-14 15:30:15 by Eclipse SUMO netconvert Version 1.17.0
<configuration xmlns:xsi="http://www.w3.org/2001/XMLSchema-instance" xsi:noNamespaceSchemaLocation="http://sumo.dlr.de/xsd/netconvertConfiguration.xsd">

    <input>
        <sumo-net-file value="osm.net.xml.gz"/>
    </input>

    <output>
        <output-file value="osm.net.xml"/>
        <output.street-names value="true"/>
    </output>

    <processing>
        <geometry.min-radius.fix.railways value="false"/>
        <geometry.max-grade.fix value="false"/>
        <offset.disable-normalization value="true"/>
        <lefthand value="0"/>
    </processing>

    <junctions>
        <no-turnarounds value="true"/>
        <junctions.corner-detail value="5"/>
        <junctions.limit-turn-speed value="5.50"/>
        <rectangular-lane-cut value="0"/>
    </junctions>

    <pedestrian>
        <walkingareas value="0"/>
    </pedestrian>

</configuration>
-->

<net version="1.16" junctionCornerDetail="5" limitTurnSpeed="5.50" xmlns:xsi="http://www.w3.org/2001/XMLSchema-instance" xsi:noNamespaceSchemaLocation="http://sumo.dlr.de/xsd/net_file.xsd">

    <location netOffset="-361395.35,-144657.78" convBoundary="0.00,0.00,507.28,527.54" origBoundary="103.754169,1.308453,103.758729,1.313222" projParameter="+proj=utm +zone=48 +ellps=WGS84 +datum=WGS84 +units=m +no_defs"/>

    <type id="highway.bridleway" priority="1" numLanes="1" speed="2.78" allow="pedestrian" oneway="1" width="2.00"/>
    <type id="highway.bus_guideway" priority="1" numLanes="1" speed="27.78" allow="bus" oneway="1"/>
    <type id="highway.cycleway" priority="1" numLanes="1" speed="5.56" allow="bicycle" oneway="0" width="1.00"/>
    <type id="highway.footway" priority="1" numLanes="1" speed="2.78" allow="pedestrian" oneway="1" width="2.00"/>
    <type id="highway.ford" priority="1" numLanes="1" speed="2.78" allow="army" oneway="0"/>
    <type id="highway.living_street" priority="2" numLanes="1" speed="2.78" disallow="tram rail_urban rail rail_electric rail_fast ship" oneway="0"/>
    <type id="highway.motorway" priority="14" numLanes="2" speed="39.44" allow="private emergency authority army vip passenger hov taxi bus coach delivery truck trailer motorcycle evehicle custom1 custom2" oneway="1"/>
    <type id="highway.motorway_link" priority="9" numLanes="1" speed="22.22" allow="private emergency authority army vip passenger hov taxi bus coach delivery truck trailer motorcycle evehicle custom1 custom2" oneway="1"/>
    <type id="highway.path" priority="1" numLanes="1" speed="5.56" allow="pedestrian bicycle" oneway="0" width="2.00"/>
    <type id="highway.pedestrian" priority="1" numLanes="1" speed="2.78" allow="pedestrian" oneway="1" width="2.00"/>
    <type id="highway.primary" priority="12" numLanes="2" speed="27.78" disallow="tram rail_urban rail rail_electric rail_fast ship" oneway="0"/>
    <type id="highway.primary_link" priority="7" numLanes="1" speed="22.22" disallow="tram rail_urban rail rail_electric rail_fast ship" oneway="0"/>
    <type id="highway.raceway" priority="15" numLanes="2" speed="83.33" allow="vip" oneway="0"/>
    <type id="highway.residential" priority="3" numLanes="1" speed="13.89" disallow="tram rail_urban rail rail_electric rail_fast ship" oneway="0"/>
    <type id="highway.secondary" priority="11" numLanes="1" speed="27.78" disallow="tram rail_urban rail rail_electric rail_fast ship" oneway="0"/>
    <type id="highway.secondary_link" priority="6" numLanes="1" speed="22.22" disallow="tram rail_urban rail rail_electric rail_fast ship" oneway="0"/>
    <type id="highway.service" priority="1" numLanes="1" speed="5.56" allow="pedestrian delivery bicycle" oneway="0"/>
    <type id="highway.stairs" priority="1" numLanes="1" speed="1.39" allow="pedestrian" oneway="1" width="2.00"/>
    <type id="highway.step" priority="1" numLanes="1" speed="1.39" allow="pedestrian" oneway="1" width="2.00"/>
    <type id="highway.steps" priority="1" numLanes="1" speed="1.39" allow="pedestrian" oneway="1" width="2.00"/>
    <type id="highway.tertiary" priority="10" numLanes="1" speed="22.22" disallow="tram rail_urban rail rail_electric rail_fast ship" oneway="0"/>
    <type id="highway.tertiary_link" priority="5" numLanes="1" speed="22.22" disallow="tram rail_urban rail rail_electric rail_fast ship" oneway="0"/>
    <type id="highway.track" priority="1" numLanes="1" speed="5.56" allow="pedestrian motorcycle moped bicycle" oneway="0"/>
    <type id="highway.trunk" priority="13" numLanes="2" speed="27.78" disallow="pedestrian bicycle tram rail_urban rail rail_electric rail_fast ship" oneway="0"/>
    <type id="highway.trunk_link" priority="8" numLanes="1" speed="22.22" disallow="pedestrian bicycle tram rail_urban rail rail_electric rail_fast ship" oneway="0"/>
    <type id="highway.unclassified" priority="4" numLanes="1" speed="13.89" disallow="tram rail_urban rail rail_electric rail_fast ship" oneway="0"/>
    <type id="highway.unsurfaced" priority="1" numLanes="1" speed="8.33" disallow="tram rail_urban rail rail_electric rail_fast ship" oneway="0"/>
    <type id="railway.highspeed" priority="21" numLanes="1" speed="69.44" allow="rail_fast" oneway="1"/>
    <type id="railway.light_rail" priority="19" numLanes="1" speed="27.78" allow="rail_urban" oneway="1"/>
    <type id="railway.preserved" priority="16" numLanes="1" speed="27.78" allow="rail" oneway="1"/>
    <type id="railway.rail" priority="20" numLanes="1" speed="44.44" allow="rail" oneway="1"/>
    <type id="railway.subway" priority="18" numLanes="1" speed="27.78" allow="rail_urban" oneway="1"/>
    <type id="railway.tram" priority="17" numLanes="1" speed="13.89" allow="tram" oneway="1"/>

    <edge id=":1064250228_0" function="internal">
        <lane id=":1064250228_0_0" index="0" disallow="tram rail_urban rail rail_electric rail_fast ship" speed="3.65" length="4.67" shape="355.93,381.67 355.53,380.28 355.73,379.41 356.56,379.06 357.99,379.21"/>
    </edge>
    <edge id=":1298433961_0" function="internal">
        <lane id=":1298433961_0_0" index="0" disallow="tram rail_urban rail rail_electric rail_fast ship" speed="3.65" length="4.67" shape="319.10,403.25 319.21,404.69 318.83,405.50 317.95,405.68 316.58,405.23"/>
    </edge>
    <edge id=":1298433965_0" function="internal">
        <lane id=":1298433965_0_0" index="0" disallow="tram rail_urban rail rail_electric rail_fast ship" speed="3.65" length="4.67" shape="137.07,463.43 135.66,463.76 134.81,463.51 134.50,462.67 134.73,461.25"/>
    </edge>
    <edge id=":1357108500_0" function="internal">
        <lane id=":1357108500_0_0" index="0" disallow="pedestrian bicycle tram rail_urban rail rail_electric rail_fast ship" speed="19.44" length="12.75" shape="279.47,195.88 287.48,186.11"/>
        <lane id=":1357108500_0_1" index="1" disallow="pedestrian bicycle tram rail_urban rail rail_electric rail_fast ship" speed="19.44" length="12.75" shape="281.96,197.89 290.04,188.03"/>
        <lane id=":1357108500_0_2" index="2" disallow="pedestrian bicycle tram rail_urban rail rail_electric rail_fast ship" speed="19.44" length="12.75" shape="284.45,199.90 292.59,189.96"/>
    </edge>
    <edge id=":1357108500_3" function="internal">
        <lane id=":1357108500_3_0" index="0" disallow="pedestrian bicycle tram rail_urban rail rail_electric rail_fast ship" speed="14.96" length="13.80" shape="289.74,202.17 289.22,198.64 288.32,195.34 288.21,191.92 290.04,188.03"/>
        <lane id=":1357108500_3_1" index="1" disallow="pedestrian bicycle tram rail_urban rail rail_electric rail_fast ship" speed="14.03" length="13.80" shape="289.74,202.17 289.69,198.86 289.78,196.07 290.57,193.28 292.59,189.96"/>
    </edge>
    <edge id=":1357108508_0" function="internal">
        <lane id=":1357108508_0_0" index="0" disallow="pedestrian bicycle tram rail_urban rail rail_electric rail_fast ship" speed="19.44" length="8.21" shape="194.97,164.28 192.90,163.04 191.29,162.52 189.68,162.00 187.61,160.77"/>
        <lane id=":1357108508_0_1" index="1" disallow="pedestrian bicycle tram rail_urban rail rail_electric rail_fast ship" speed="19.44" length="8.21" shape="196.89,161.72 194.82,160.48 193.21,159.96 191.59,159.44 189.52,158.21"/>
    </edge>
    <edge id=":1357108539_0" function="internal">
        <lane id=":1357108539_0_0" index="0" disallow="tram rail_urban rail rail_electric rail_fast ship" speed="12.50" length="5.65" shape="295.94,247.36 294.76,246.26 294.13,245.31 293.49,244.38 292.27,243.34"/>
        <lane id=":1357108539_0_1" index="1" disallow="tram rail_urban rail rail_electric rail_fast ship" speed="12.50" length="5.65" shape="297.82,244.77 296.61,243.66 295.96,242.69 295.30,241.74 294.05,240.69"/>
        <lane id=":1357108539_0_2" index="2" disallow="tram rail_urban rail rail_electric rail_fast ship" speed="12.50" length="5.65" shape="299.70,242.18 298.46,241.05 297.80,240.07 297.12,239.10 295.84,238.03"/>
        <lane id=":1357108539_0_3" index="3" disallow="tram rail_urban rail rail_electric rail_fast ship" speed="12.50" length="5.65" shape="301.58,239.59 300.32,238.44 299.63,237.44 298.93,236.47 297.63,235.38"/>
    </edge>
    <edge id=":1357108539_4" function="internal">
        <lane id=":1357108539_4_0" index="0" disallow="pedestrian bicycle tram rail_urban rail rail_electric rail_fast ship" speed="9.68" length="5.02" shape="303.46,237.00 302.33,236.08 301.69,235.29 301.25,234.33 300.73,232.94"/>
    </edge>
    <edge id=":1357108540_0" function="internal">
        <lane id=":1357108540_0_0" index="0" disallow="tram rail_urban rail rail_electric rail_fast ship" speed="19.44" length="15.26" shape="267.24,239.18 280.28,246.97"/>
        <lane id=":1357108540_0_1" index="1" disallow="tram rail_urban rail rail_electric rail_fast ship" speed="19.44" length="15.26" shape="265.60,241.93 278.76,249.78"/>
    </edge>
    <edge id=":1357108540_2" function="internal">
        <lane id=":1357108540_2_0" index="0" disallow="tram rail_urban rail rail_electric rail_fast ship" speed="14.82" length="15.26" shape="264.02,247.64 267.49,247.15 270.78,247.09 274.39,247.85 278.76,249.78"/>
    </edge>
    <edge id=":246294577_0" function="internal">
        <lane id=":246294577_0_0" index="0" disallow="tram rail_urban rail rail_electric rail_fast ship" speed="19.44" length="13.09" shape="234.98,255.51 237.20,252.39 238.52,250.12 239.80,247.81 241.89,244.59"/>
        <lane id=":246294577_0_1" index="1" disallow="tram rail_urban rail rail_electric rail_fast ship" speed="19.44" length="13.09" shape="237.50,257.47 239.76,254.32 241.10,252.02 242.39,249.68 244.50,246.43"/>
        <lane id=":246294577_0_2" index="2" disallow="tram rail_urban rail rail_electric rail_fast ship" speed="19.44" length="13.09" shape="240.03,259.43 242.32,256.24 243.67,253.92 244.98,251.56 247.12,248.27"/>
    </edge>
    <edge id=":246294577_3" function="internal">
        <lane id=":246294577_3_0" index="0" disallow="tram rail_urban rail rail_electric rail_fast ship" speed="16.57" length="13.33" shape="240.03,259.43 242.78,256.39 245.26,254.60 247.86,253.43 250.97,252.26"/>
    </edge>
    <edge id=":246579424_0" function="internal">
        <lane id=":246579424_0_0" index="0" disallow="pedestrian bicycle tram rail_urban rail rail_electric rail_fast ship" speed="19.44" length="8.14" shape="132.95,130.78 135.04,132.10 136.67,132.69 138.28,133.30 140.32,134.68"/>
        <lane id=":246579424_0_1" index="1" disallow="pedestrian bicycle tram rail_urban rail rail_electric rail_fast ship" speed="19.44" length="8.14" shape="130.98,133.30 133.04,134.60 134.65,135.18 136.25,135.78 138.27,137.13"/>
        <lane id=":246579424_0_2" index="2" disallow="pedestrian bicycle tram rail_urban rail rail_electric rail_fast ship" speed="19.44" length="8.14" shape="129.01,135.82 131.05,137.10 132.64,137.67 134.22,138.25 136.21,139.59"/>
        <lane id=":246579424_0_3" index="3" disallow="pedestrian bicycle tram rail_urban rail rail_electric rail_fast ship" speed="19.44" length="8.14" shape="127.04,138.35 129.05,139.60 130.63,140.16 132.20,140.73 134.16,142.05"/>
        <lane id=":246579424_0_4" index="4" disallow="pedestrian bicycle tram rail_urban rail rail_electric rail_fast ship" speed="19.44" length="8.14" shape="125.07,140.87 127.06,142.11 128.62,142.65 130.17,143.20 132.11,144.50"/>
        <lane id=":246579424_0_5" index="5" disallow="pedestrian bicycle tram rail_urban rail rail_electric rail_fast ship" speed="19.44" length="8.14" shape="125.07,140.87 126.73,142.49 127.60,143.87 128.44,145.28 130.06,146.96"/>
    </edge>
    <edge id=":246579461_0" function="internal">
        <lane id=":246579461_0_0" index="0" disallow="tram rail_urban rail rail_electric rail_fast ship" speed="19.44" length="19.61" shape="379.11,294.91 384.63,296.28 388.44,297.31 392.28,297.80 397.88,297.53"/>
        <lane id=":246579461_0_1" index="1" disallow="tram rail_urban rail rail_electric rail_fast ship" speed="19.44" length="19.61" shape="378.45,298.04 384.26,299.47 388.27,300.53 392.31,301.01 398.21,300.71"/>
    </edge>
    <edge id=":246579461_2" function="internal">
        <lane id=":246579461_2_0" index="0" disallow="tram rail_urban rail rail_electric rail_fast ship" speed="16.66" length="22.99" shape="375.40,303.50 379.62,302.76 384.90,302.09 391.13,301.43 398.21,300.71"/>
    </edge>
    <edge id=":246612189_0" function="internal">
        <lane id=":246612189_0_0" index="0" disallow="tram rail_urban rail rail_electric rail_fast ship" speed="19.44" length="13.58" shape="337.90,279.19 341.35,281.15 343.80,282.31 346.33,283.35 349.98,284.92"/>
        <lane id=":246612189_0_1" index="1" disallow="tram rail_urban rail rail_electric rail_fast ship" speed="19.44" length="13.58" shape="336.25,281.93 339.79,283.95 342.32,285.15 344.91,286.22 348.67,287.84"/>
    </edge>
    <edge id=":246612189_2" function="internal">
        <lane id=":246612189_2_0" index="0" disallow="tram rail_urban rail rail_electric rail_fast ship" speed="10.99" length="13.21" shape="336.25,281.93 340.02,284.43 342.80,286.78 344.58,288.99 345.37,291.05"/>
        <lane id=":246612189_2_1" index="1" disallow="tram rail_urban rail rail_electric rail_fast ship" speed="10.88" length="12.93" shape="336.25,281.93 338.51,283.74 340.29,286.16 341.58,289.19 342.39,292.84"/>
    </edge>
    <edge id=":246612191_0" function="internal">
        <lane id=":246612191_0_0" index="0" disallow="tram rail_urban rail rail_electric rail_fast ship" speed="12.27" length="15.03" shape="343.66,304.58 342.29,307.80 340.18,310.66 337.33,313.16 333.73,315.30"/>
    </edge>
    <edge id=":246612191_1" function="internal">
        <lane id=":246612191_1_0" index="0" disallow="tram rail_urban rail rail_electric rail_fast ship" speed="13.89" length="15.98" shape="332.32,312.43 335.97,311.17 339.99,310.49 344.09,310.02 347.96,309.42"/>
    </edge>
    <edge id=":246612198_0" function="internal">
        <lane id=":246612198_0_0" index="0" disallow="tram rail_urban rail rail_electric rail_fast ship" speed="6.66" length="9.28" shape="278.30,357.68 276.39,355.92 274.40,355.15 272.33,355.37 270.18,356.57"/>
    </edge>
    <edge id=":246612198_1" function="internal">
        <lane id=":246612198_1_0" index="0" disallow="tram rail_urban rail rail_electric rail_fast ship" speed="7.90" length="14.43" shape="278.30,357.68 276.21,354.28 275.77,351.08 276.97,348.08 279.81,345.29"/>
    </edge>
    <edge id=":246612198_2" function="internal">
        <lane id=":246612198_2_0" index="0" disallow="tram rail_urban rail rail_electric rail_fast ship" speed="6.39" length="9.04" shape="281.71,347.87 279.93,349.62 279.18,351.49 279.45,353.50 280.75,355.63"/>
    </edge>
    <edge id=":246612198_3" function="internal">
        <lane id=":246612198_3_0" index="0" disallow="tram rail_urban rail rail_electric rail_fast ship" speed="13.89" length="14.45" shape="281.71,347.87 270.18,356.57"/>
    </edge>
    <edge id=":246612198_4" function="internal">
        <lane id=":246612198_4_0" index="0" disallow="tram rail_urban rail rail_electric rail_fast ship" speed="13.89" length="14.53" shape="268.22,354.05 279.81,345.29"/>
    </edge>
    <edge id=":246612198_5" function="internal">
        <lane id=":246612198_5_0" index="0" disallow="tram rail_urban rail rail_electric rail_fast ship" speed="8.12" length="4.10" shape="268.22,354.05 271.56,352.16 271.82,352.13"/>
    </edge>
    <edge id=":246612198_6" function="internal">
        <lane id=":246612198_6_0" index="0" disallow="tram rail_urban rail rail_electric rail_fast ship" speed="8.12" length="10.21" shape="271.82,352.13 274.77,351.79 277.83,352.95 280.75,355.63"/>
    </edge>
    <edge id=":4624857953_0" function="internal">
        <lane id=":4624857953_0_0" index="0" disallow="pedestrian bicycle tram rail_urban rail rail_electric rail_fast ship" speed="19.44" length="0.29" shape="334.91,105.66 335.10,105.41"/>
        <lane id=":4624857953_0_1" index="1" disallow="pedestrian bicycle tram rail_urban rail rail_electric rail_fast ship" speed="19.44" length="0.29" shape="337.48,107.57 337.64,107.36"/>
    </edge>
    <edge id=":4624857955_0" function="internal">
        <lane id=":4624857955_0_0" index="0" disallow="pedestrian bicycle tram rail_urban rail rail_electric rail_fast ship" speed="19.44" length="8.00" shape="323.71,91.22 322.45,93.08 321.93,94.58 321.45,96.11 320.31,98.06"/>
        <lane id=":4624857955_0_1" index="1" disallow="pedestrian bicycle tram rail_urban rail rail_electric rail_fast ship" speed="19.44" length="8.00" shape="321.28,89.14 319.98,91.05 319.43,92.59 318.92,94.15 317.74,96.16"/>
        <lane id=":4624857955_0_2" index="2" disallow="pedestrian bicycle tram rail_urban rail rail_electric rail_fast ship" speed="19.44" length="8.00" shape="318.84,87.06 317.50,89.03 316.92,90.59 316.39,92.19 315.17,94.26"/>
        <lane id=":4624857955_0_3" index="3" disallow="pedestrian bicycle tram rail_urban rail rail_electric rail_fast ship" speed="19.44" length="8.00" shape="318.84,87.06 317.09,88.74 315.64,89.64 314.22,90.58 312.59,92.35"/>
    </edge>
    <edge id=":4745934599_0" function="internal">
        <lane id=":4745934599_0_0" index="0" disallow="pedestrian bicycle tram rail_urban rail rail_electric rail_fast ship" speed="19.44" length="43.75" shape="179.39,167.32 212.95,195.30"/>
        <lane id=":4745934599_0_1" index="1" disallow="pedestrian bicycle tram rail_urban rail rail_electric rail_fast ship" speed="19.44" length="43.75" shape="177.34,169.77 210.92,197.77"/>
        <lane id=":4745934599_0_2" index="2" disallow="pedestrian bicycle tram rail_urban rail rail_electric rail_fast ship" speed="19.44" length="43.75" shape="175.29,172.23 208.88,200.25"/>
        <lane id=":4745934599_0_3" index="3" disallow="pedestrian bicycle tram rail_urban rail rail_electric rail_fast ship" speed="19.44" length="43.75" shape="173.23,174.68 206.85,202.72"/>
        <lane id=":4745934599_0_4" index="4" disallow="pedestrian bicycle tram rail_urban rail rail_electric rail_fast ship" speed="19.44" length="43.75" shape="171.18,177.14 204.82,205.19"/>
    </edge>
    <edge id=":4745934599_5" function="internal">
        <lane id=":4745934599_5_0" index="0" disallow="pedestrian bicycle tram rail_urban rail rail_electric rail_fast ship" speed="16.66" length="3.33" shape="171.18,177.14 173.81,179.19"/>
        <lane id=":4745934599_5_1" index="1" disallow="pedestrian bicycle tram rail_urban rail rail_electric rail_fast ship" speed="16.66" length="2.25" shape="169.13,179.60 170.91,180.97"/>
    </edge>
    <edge id=":4745934604_0" function="internal">
        <lane id=":4745934604_0_0" index="0" disallow="tram rail_urban rail rail_electric rail_fast ship" speed="19.44" length="13.51" shape="216.76,231.65 208.33,242.11"/>
        <lane id=":4745934604_0_1" index="1" disallow="tram rail_urban rail rail_electric rail_fast ship" speed="19.44" length="13.51" shape="214.28,229.62 205.76,240.21"/>
    </edge>
    <edge id=":4745934604_2" function="internal">
        <lane id=":4745934604_2_0" index="0" disallow="pedestrian bicycle tram rail_urban rail rail_electric rail_fast ship" speed="15.52" length="13.57" shape="210.55,228.21 210.68,232.55 210.91,235.68 210.41,238.54 208.33,242.11"/>
        <lane id=":4745934604_2_1" index="1" disallow="pedestrian bicycle tram rail_urban rail rail_electric rail_fast ship" speed="10.62" length="13.57" shape="207.24,228.10 207.90,231.63 207.87,234.83 207.16,237.69 205.76,240.21"/>
    </edge>
    <edge id=":4745934605_0" function="internal">
        <lane id=":4745934605_0_0" index="0" disallow="pedestrian bicycle tram rail_urban rail rail_electric rail_fast ship" speed="13.89" length="2.10" shape="173.95,179.33 171.92,177.75"/>
        <lane id=":4745934605_0_1" index="1" disallow="pedestrian bicycle tram rail_urban rail rail_electric rail_fast ship" speed="13.89" length="2.10" shape="171.05,181.11 169.76,180.11"/>
    </edge>
    <edge id=":5974755509_0" function="internal">
        <lane id=":5974755509_0_0" index="0" disallow="pedestrian bicycle tram rail_urban rail rail_electric rail_fast ship" speed="19.44" length="8.20" shape="327.48,136.94 328.68,134.86 329.15,133.25 329.61,131.63 330.76,129.52"/>
        <lane id=":5974755509_0_1" index="1" disallow="pedestrian bicycle tram rail_urban rail rail_electric rail_fast ship" speed="19.44" length="8.20" shape="330.08,138.81 331.28,136.72 331.77,135.09 332.24,133.46 333.39,131.33"/>
    </edge>
    <edge id=":5974802786_0" function="internal">
        <lane id=":5974802786_0_0" index="0" disallow="tram rail_urban rail rail_electric rail_fast ship" speed="19.44" length="8.20" shape="190.86,315.12 192.11,313.06 192.65,311.45 193.20,309.84 194.47,307.79"/>
        <lane id=":5974802786_0_1" index="1" disallow="tram rail_urban rail rail_electric rail_fast ship" speed="19.44" length="8.20" shape="193.40,317.06 194.65,315.00 195.19,313.40 195.73,311.79 197.00,309.75"/>
        <lane id=":5974802786_0_2" index="2" disallow="tram rail_urban rail rail_electric rail_fast ship" speed="19.44" length="8.20" shape="193.40,317.06 195.05,315.31 196.45,314.38 197.87,313.45 199.53,311.71"/>
    </edge>
    <edge id=":6261107205_0" function="internal">
        <lane id=":6261107205_0_0" index="0" disallow="pedestrian bicycle tram rail_urban rail rail_electric rail_fast ship" speed="13.89" length="8.21" shape="115.55,96.03 113.48,94.83 111.86,94.35 110.24,93.87 108.15,92.69"/>
        <lane id=":6261107205_0_1" index="1" disallow="pedestrian bicycle tram rail_urban rail rail_electric rail_fast ship" speed="13.89" length="8.21" shape="117.43,93.44 115.35,92.24 113.73,91.75 112.10,91.26 110.00,90.08"/>
        <lane id=":6261107205_0_2" index="2" disallow="pedestrian bicycle tram rail_urban rail rail_electric rail_fast ship" speed="13.89" length="8.21" shape="117.43,93.44 115.63,91.83 114.65,90.44 113.66,89.06 111.85,87.47"/>
    </edge>
    <edge id=":6974153009_0" function="internal">
        <lane id=":6974153009_0_0" index="0" disallow="pedestrian bicycle tram rail_urban rail rail_electric rail_fast ship" speed="19.44" length="8.21" shape="311.58,109.87 310.36,111.93 309.86,113.54 309.37,115.15 308.17,117.22"/>
        <lane id=":6974153009_0_1" index="1" disallow="pedestrian bicycle tram rail_urban rail rail_electric rail_fast ship" speed="19.44" length="8.21" shape="309.00,107.97 307.78,110.04 307.28,111.65 306.78,113.26 305.58,115.35"/>
        <lane id=":6974153009_0_2" index="2" disallow="pedestrian bicycle tram rail_urban rail rail_electric rail_fast ship" speed="19.44" length="8.21" shape="306.43,106.06 305.21,108.14 304.70,109.76 304.20,111.38 302.99,113.47"/>
        <lane id=":6974153009_0_3" index="3" disallow="pedestrian bicycle tram rail_urban rail rail_electric rail_fast ship" speed="19.44" length="8.21" shape="303.86,104.16 302.63,106.24 302.12,107.87 301.61,109.49 300.40,111.59"/>
        <lane id=":6974153009_0_4" index="4" disallow="pedestrian bicycle tram rail_urban rail rail_electric rail_fast ship" speed="19.44" length="8.21" shape="303.86,104.16 302.22,105.95 300.82,106.93 299.43,107.90 297.81,109.71"/>
    </edge>
    <edge id=":6974153012_0" function="internal">
        <lane id=":6974153012_0_0" index="0" disallow="pedestrian bicycle tram rail_urban rail rail_electric rail_fast ship" speed="19.44" length="11.46" shape="273.45,165.06 271.09,167.40 268.89,168.41 266.67,169.41 264.26,171.72"/>
        <lane id=":6974153012_0_1" index="1" disallow="pedestrian bicycle tram rail_urban rail rail_electric rail_fast ship" speed="19.44" length="11.46" shape="270.86,163.18 268.51,165.51 266.31,166.51 264.10,167.50 261.70,169.79"/>
        <lane id=":6974153012_0_2" index="2" disallow="pedestrian bicycle tram rail_urban rail rail_electric rail_fast ship" speed="19.44" length="11.46" shape="268.27,161.30 265.93,163.62 263.74,164.61 261.54,165.59 259.15,167.87"/>
    </edge>
    <edge id=":6974153012_3" function="internal">
        <lane id=":6974153012_3_0" index="0" disallow="pedestrian bicycle tram rail_urban rail rail_electric rail_fast ship" speed="12.04" length="10.92" shape="265.68,159.42 263.67,161.87 261.89,163.19 259.73,163.96 256.59,164.75"/>
        <lane id=":6974153012_3_1" index="1" disallow="pedestrian bicycle tram rail_urban rail rail_electric rail_fast ship" speed="11.24" length="9.47" shape="263.09,157.54 261.32,159.62 259.72,160.65 257.78,161.21 255.04,161.85"/>
    </edge>
    <edge id=":6979419461_0" function="internal">
        <lane id=":6979419461_0_0" index="0" disallow="tram rail_urban rail rail_electric rail_fast ship" speed="11.11" length="8.50" shape="320.98,261.35 318.60,260.40 316.68,260.43 314.78,260.43 312.48,259.38"/>
        <lane id=":6979419461_0_1" index="1" disallow="tram rail_urban rail rail_electric rail_fast ship" speed="11.11" length="8.50" shape="322.73,258.68 320.39,257.75 318.50,257.80 316.63,257.82 314.36,256.79"/>
        <lane id=":6979419461_0_2" index="2" disallow="tram rail_urban rail rail_electric rail_fast ship" speed="11.11" length="8.50" shape="324.48,256.00 322.18,255.09 320.32,255.17 318.47,255.21 316.24,254.20"/>
        <lane id=":6979419461_0_3" index="3" disallow="tram rail_urban rail rail_electric rail_fast ship" speed="11.11" length="8.50" shape="324.48,256.00 318.13,251.62"/>
        <lane id=":6979419461_0_4" index="4" disallow="tram rail_urban rail rail_electric rail_fast ship" speed="11.11" length="8.50" shape="324.48,256.00 322.79,254.30 322.20,252.58 321.63,250.82 320.01,249.03"/>
    </edge>
    <edge id=":6979419465_0" function="internal">
        <lane id=":6979419465_0_0" index="0" disallow="tram rail_urban rail rail_electric rail_fast ship" speed="11.11" length="8.03" shape="334.72,268.16 332.52,267.18 330.86,266.83 329.22,266.45 327.09,265.35"/>
        <lane id=":6979419465_0_1" index="1" disallow="tram rail_urban rail rail_electric rail_fast ship" speed="11.11" length="8.03" shape="336.31,265.39 334.16,264.43 332.53,264.10 330.93,263.74 328.84,262.68"/>
        <lane id=":6979419465_0_2" index="2" disallow="tram rail_urban rail rail_electric rail_fast ship" speed="11.11" length="8.03" shape="336.31,265.39 334.45,264.02 333.41,262.76 332.40,261.47 330.59,260.00"/>
    </edge>
    <edge id=":842295473_0" function="internal">
        <lane id=":842295473_0_0" index="0" disallow="tram rail_urban rail rail_electric rail_fast ship" speed="5.98" length="8.07" shape="403.15,303.90 403.10,302.31 403.97,301.00 405.78,299.98 408.51,299.25"/>
    </edge>
    <edge id=":842295473_1" function="internal">
        <lane id=":842295473_1_0" index="0" disallow="tram rail_urban rail rail_electric rail_fast ship" speed="19.44" length="9.21" shape="398.95,297.42 407.93,296.10"/>
        <lane id=":842295473_1_1" index="1" disallow="tram rail_urban rail rail_electric rail_fast ship" speed="19.44" length="9.21" shape="399.27,300.60 408.51,299.25"/>
    </edge>
    <edge id=":842295473_3" function="internal">
        <lane id=":842295473_3_0" index="0" disallow="tram rail_urban rail rail_electric rail_fast ship" speed="6.58" length="7.92" shape="399.27,300.60 401.98,300.52 404.04,300.89 405.45,301.71 406.22,302.99"/>
    </edge>
    <edge id=":cluster_246579426_249398921_0" function="internal">
        <lane id=":cluster_246579426_249398921_0_0" index="0" disallow="pedestrian bicycle tram rail_urban rail rail_electric rail_fast ship" speed="11.88" length="31.98" shape="245.19,206.15 241.98,206.04 236.96,209.30 230.11,215.94 221.43,225.94"/>
    </edge>
    <edge id=":cluster_246579426_249398921_1" function="internal">
        <lane id=":cluster_246579426_249398921_1_0" index="0" disallow="pedestrian bicycle tram rail_urban rail rail_electric rail_fast ship" speed="19.44" length="17.82" shape="245.19,206.15 230.37,196.24"/>
    </edge>
    <edge id=":cluster_246579426_249398921_2" function="internal">
        <lane id=":cluster_246579426_249398921_2_0" index="0" disallow="pedestrian bicycle tram rail_urban rail rail_electric rail_fast ship" speed="8.28" length="16.36" shape="247.16,203.63 250.31,213.23 249.05,219.37"/>
    </edge>
    <edge id=":cluster_246579426_249398921_3" function="internal">
        <lane id=":cluster_246579426_249398921_3_0" index="0" disallow="pedestrian bicycle tram rail_urban rail rail_electric rail_fast ship" speed="19.44" length="17.78" shape="247.16,203.63 232.39,193.76"/>
        <lane id=":cluster_246579426_249398921_3_1" index="1" disallow="pedestrian bicycle tram rail_urban rail rail_electric rail_fast ship" speed="19.44" length="17.78" shape="247.16,203.63 243.18,200.19 240.73,197.53 238.30,194.83 234.41,191.27"/>
    </edge>
    <edge id=":cluster_246579426_249398921_10" function="internal">