<?xml version="1.0" encoding="UTF-8"?>

<!-- generated on 2023-07-17 11:10:52 by Eclipse SUMO netconvert Version 1.17.0
<configuration xmlns:xsi="http://www.w3.org/2001/XMLSchema-instance" xsi:noNamespaceSchemaLocation="http://sumo.dlr.de/xsd/netconvertConfiguration.xsd">

    <input>
        <sumo-net-file value="osm.net.xml.gz"/>
    </input>

    <output>
        <output-file value="osm.net.xml"/>
        <output.street-names value="true"/>
    </output>

    <processing>
        <geometry.min-radius.fix.railways value="false"/>
        <geometry.max-grade.fix value="false"/>
        <offset.disable-normalization value="true"/>
        <lefthand value="1"/>
    </processing>

    <junctions>
        <no-turnarounds value="true"/>
        <junctions.corner-detail value="5"/>
        <junctions.limit-turn-speed value="5.50"/>
        <rectangular-lane-cut value="0"/>
    </junctions>

    <pedestrian>
        <walkingareas value="0"/>
    </pedestrian>

</configuration>
-->

<net version="1.16" junctionCornerDetail="5" lefthand="true" limitTurnSpeed="5.50" xmlns:xsi="http://www.w3.org/2001/XMLSchema-instance" xsi:noNamespaceSchemaLocation="http://sumo.dlr.de/xsd/net_file.xsd">

    <location netOffset="-378275.54,-143691.07" convBoundary="0.00,0.00,1240.76,531.17" origBoundary="103.905880,1.299779,103.917030,1.304584" projParameter="+proj=utm +zone=48 +ellps=WGS84 +datum=WGS84 +units=m +no_defs"/>

    <type id="highway.bridleway" priority="1" numLanes="1" speed="2.78" allow="pedestrian" oneway="1" width="2.00"/>
    <type id="highway.bus_guideway" priority="1" numLanes="1" speed="27.78" allow="bus" oneway="1"/>
    <type id="highway.cycleway" priority="1" numLanes="1" speed="5.56" allow="bicycle" oneway="0" width="1.00"/>
    <type id="highway.footway" priority="1" numLanes="1" speed="2.78" allow="pedestrian" oneway="1" width="2.00"/>
    <type id="highway.ford" priority="1" numLanes="1" speed="2.78" allow="army" oneway="0"/>
    <type id="highway.living_street" priority="2" numLanes="1" speed="2.78" disallow="tram rail_urban rail rail_electric rail_fast ship" oneway="0"/>
    <type id="highway.motorway" priority="14" numLanes="2" speed="39.44" allow="private emergency authority army vip passenger hov taxi bus coach delivery truck trailer motorcycle evehicle custom1 custom2" oneway="1"/>
    <type id="highway.motorway_link" priority="9" numLanes="1" speed="22.22" allow="private emergency authority army vip passenger hov taxi bus coach delivery truck trailer motorcycle evehicle custom1 custom2" oneway="1"/>
    <type id="highway.path" priority="1" numLanes="1" speed="5.56" allow="pedestrian bicycle" oneway="0" width="2.00"/>
    <type id="highway.pedestrian" priority="1" numLanes="1" speed="2.78" allow="pedestrian" oneway="1" width="2.00"/>
    <type id="highway.primary" priority="12" numLanes="2" speed="27.78" disallow="tram rail_urban rail rail_electric rail_fast ship" oneway="0"/>
    <type id="highway.primary_link" priority="7" numLanes="1" speed="22.22" disallow="tram rail_urban rail rail_electric rail_fast ship" oneway="0"/>
    <type id="highway.raceway" priority="15" numLanes="2" speed="83.33" allow="vip" oneway="0"/>
    <type id="highway.residential" priority="3" numLanes="1" speed="13.89" disallow="tram rail_urban rail rail_electric rail_fast ship" oneway="0"/>
    <type id="highway.secondary" priority="11" numLanes="1" speed="27.78" disallow="tram rail_urban rail rail_electric rail_fast ship" oneway="0"/>
    <type id="highway.secondary_link" priority="6" numLanes="1" speed="22.22" disallow="tram rail_urban rail rail_electric rail_fast ship" oneway="0"/>
    <type id="highway.service" priority="1" numLanes="1" speed="5.56" allow="pedestrian delivery bicycle" oneway="0"/>
    <type id="highway.stairs" priority="1" numLanes="1" speed="1.39" allow="pedestrian" oneway="1" width="2.00"/>
    <type id="highway.step" priority="1" numLanes="1" speed="1.39" allow="pedestrian" oneway="1" width="2.00"/>
    <type id="highway.steps" priority="1" numLanes="1" speed="1.39" allow="pedestrian" oneway="1" width="2.00"/>
    <type id="highway.tertiary" priority="10" numLanes="1" speed="22.22" disallow="tram rail_urban rail rail_electric rail_fast ship" oneway="0"/>
    <type id="highway.tertiary_link" priority="5" numLanes="1" speed="22.22" disallow="tram rail_urban rail rail_electric rail_fast ship" oneway="0"/>
    <type id="highway.track" priority="1" numLanes="1" speed="5.56" allow="pedestrian motorcycle moped bicycle" oneway="0"/>
    <type id="highway.trunk" priority="13" numLanes="2" speed="27.78" disallow="pedestrian bicycle tram rail_urban rail rail_electric rail_fast ship" oneway="0"/>
    <type id="highway.trunk_link" priority="8" numLanes="1" speed="22.22" disallow="pedestrian bicycle tram rail_urban rail rail_electric rail_fast ship" oneway="0"/>
    <type id="highway.unclassified" priority="4" numLanes="1" speed="13.89" disallow="tram rail_urban rail rail_electric rail_fast ship" oneway="0"/>
    <type id="highway.unsurfaced" priority="1" numLanes="1" speed="8.33" disallow="tram rail_urban rail rail_electric rail_fast ship" oneway="0"/>
    <type id="railway.highspeed" priority="21" numLanes="1" speed="69.44" allow="rail_fast" oneway="1"/>
    <type id="railway.light_rail" priority="19" numLanes="1" speed="27.78" allow="rail_urban" oneway="1"/>
    <type id="railway.preserved" priority="16" numLanes="1" speed="27.78" allow="rail" oneway="1"/>
    <type id="railway.rail" priority="20" numLanes="1" speed="44.44" allow="rail" oneway="1"/>
    <type id="railway.subway" priority="18" numLanes="1" speed="27.78" allow="rail_urban" oneway="1"/>
    <type id="railway.tram" priority="17" numLanes="1" speed="13.89" allow="tram" oneway="1"/>

    <edge id=":1143835781_0" function="internal">
        <lane id=":1143835781_0_0" index="0" disallow="pedestrian bicycle tram rail_urban rail rail_electric rail_fast ship" speed="13.89" length="6.87" shape="374.27,66.45 372.56,67.55 371.39,68.32 370.19,69.04 368.39,70.00"/>
    </edge>
    <edge id=":1143835781_1" function="internal">
        <lane id=":1143835781_1_0" index="0" allow="private emergency authority army vip passenger hov taxi bus coach delivery truck trailer motorcycle evehicle custom1 custom2" speed="13.89" length="4.63" shape="375.98,69.15 372.18,71.81"/>
    </edge>
    <edge id=":1143835798_0" function="internal">
        <lane id=":1143835798_0_0" index="0" disallow="pedestrian bicycle tram rail_urban rail rail_electric rail_fast ship" speed="13.89" length="9.00" shape="431.16,36.45 428.35,36.70 426.29,36.25 424.33,36.03 421.81,36.95"/>
        <lane id=":1143835798_0_1" index="1" disallow="pedestrian bicycle tram rail_urban rail rail_electric rail_fast ship" speed="13.89" length="9.00" shape="431.16,36.45 428.75,37.11 427.13,37.67 425.60,38.44 423.45,39.70"/>
    </edge>
    <edge id=":1143838119_0" function="internal">
        <lane id=":1143838119_0_0" index="0" allow="private emergency authority army vip passenger hov taxi bus coach delivery truck trailer motorcycle evehicle custom1 custom2" speed="19.45" length="3.79" shape="716.08,224.80 715.01,224.46 714.27,224.26 713.51,224.09 712.41,223.87"/>
    </edge>
    <edge id=":1143838119_1" function="internal">
        <lane id=":1143838119_1_0" index="0" allow="private emergency authority army vip passenger hov taxi bus coach delivery truck trailer motorcycle evehicle custom1 custom2" speed="25.00" length="3.02" shape="715.08,227.84 711.81,226.86"/>
        <lane id=":1143838119_1_1" index="1" allow="private emergency authority army vip passenger hov taxi bus coach delivery truck trailer motorcycle evehicle custom1 custom2" speed="25.00" length="3.02" shape="714.08,230.88 711.19,230.00"/>
        <lane id=":1143838119_1_2" index="2" allow="private emergency authority army vip passenger hov taxi bus coach delivery truck trailer motorcycle evehicle custom1 custom2" speed="25.00" length="3.02" shape="713.07,233.92 710.56,233.15"/>
    </edge>
    <edge id=":1143838121_0" function="internal">
        <lane id=":1143838121_0_0" index="0" disallow="pedestrian bicycle tram rail_urban rail rail_electric rail_fast ship" speed="8.83" length="7.35" shape="558.09,172.96 555.98,174.16 554.13,174.93 552.56,175.28 551.26,175.20"/>
    </edge>
    <edge id=":1143838121_1" function="internal">
        <lane id=":1143838121_1_0" index="0" allow="private emergency authority army vip passenger hov taxi bus coach delivery truck trailer motorcycle evehicle custom1 custom2" speed="13.89" length="7.72" shape="558.71,177.23 551.26,175.20"/>
    </edge>
    <edge id=":1782907203_0" function="internal">
        <lane id=":1782907203_0_0" index="0" disallow="pedestrian bicycle tram rail_urban rail rail_electric rail_fast ship" speed="13.89" length="7.94" shape="360.51,74.05 358.35,74.87 356.74,75.04 355.11,75.17 352.89,75.84"/>
        <lane id=":1782907203_0_1" index="1" disallow="pedestrian bicycle tram rail_urban rail rail_electric rail_fast ship" speed="13.89" length="7.94" shape="360.51,74.05 358.54,75.33 357.37,76.52 356.18,77.65 354.14,78.79"/>
    </edge>
    <edge id=":1833766776_0" function="internal">
        <lane id=":1833766776_0_0" index="0" disallow="tram rail_urban rail rail_electric rail_fast ship" speed="13.89" length="7.55" shape="591.53,64.95 590.36,63.04 589.52,61.76 588.61,60.52 587.23,58.76"/>
    </edge>
    <edge id=":1833766776_1" function="internal">
        <lane id=":1833766776_1_0" index="0" disallow="tram rail_urban rail rail_electric rail_fast ship" speed="13.89" length="7.52" shape="584.71,60.74 585.65,62.73 585.53,64.41 585.35,66.14 586.07,68.28"/>
        <lane id=":1833766776_1_1" index="1" disallow="tram rail_urban rail rail_electric rail_fast ship" speed="13.89" length="7.52" shape="584.71,60.74 586.03,62.42 586.89,63.59 587.69,64.80 588.80,66.62"/>
    </edge>
    <edge id=":1853831992_0" function="internal">
        <lane id=":1853831992_0_0" index="0" disallow="tram rail_urban rail rail_electric rail_fast ship" speed="13.89" length="8.86" shape="688.04,197.33 686.03,195.90 684.70,194.86 683.47,193.69 681.78,191.90"/>
        <lane id=":1853831992_0_1" index="1" disallow="tram rail_urban rail rail_electric rail_fast ship" speed="13.89" length="8.86" shape="688.04,197.33 685.55,196.18 683.51,195.98 681.58,195.63 679.44,194.08"/>
    </edge>
    <edge id=":1853831992_2" function="internal">
        <lane id=":1853831992_2_0" index="0" disallow="tram rail_urban rail rail_electric rail_fast ship" speed="13.89" length="10.32" shape="674.77,198.45 677.17,200.29 679.30,200.82 681.56,201.20 684.37,202.57"/>
        <lane id=":1853831992_2_1" index="1" disallow="tram rail_urban rail rail_electric rail_fast ship" speed="13.89" length="10.32" shape="677.10,196.27 679.38,197.96 681.40,198.40 683.56,198.69 686.20,199.95"/>
    </edge>
    <edge id=":226212626-AddedOnRampNode_0" function="internal">
        <lane id=":226212626-AddedOnRampNode_0_0" index="0" allow="private emergency authority army vip passenger hov taxi bus coach delivery truck trailer motorcycle evehicle custom1 custom2" speed="25.00" length="8.00" shape="935.32,320.50 943.02,322.66"/>
        <lane id=":226212626-AddedOnRampNode_0_1" index="1" allow="private emergency authority army vip passenger hov taxi bus coach delivery truck trailer motorcycle evehicle custom1 custom2" speed="25.00" length="8.00" shape="936.18,317.42 943.88,319.58"/>
        <lane id=":226212626-AddedOnRampNode_0_2" index="2" allow="private emergency authority army vip passenger hov taxi bus coach delivery truck trailer motorcycle evehicle custom1 custom2" speed="25.00" length="8.00" shape="937.04,314.34 944.75,316.50"/>
    </edge>
    <edge id=":2381036101_0" function="internal">
        <lane id=":2381036101_0_0" index="0" disallow="tram rail_urban rail rail_electric rail_fast ship" speed="3.65" length="4.67" shape="306.52,501.19 306.96,502.56 307.62,503.17 308.50,503.00 309.60,502.07"/>
    </edge>
    <edge id=":245242831_0" function="internal">
        <lane id=":245242831_0_0" index="0" allow="private emergency authority army vip passenger hov taxi bus coach delivery truck trailer motorcycle evehicle custom1 custom2" speed="13.89" length="4.05" shape="519.87,464.26 520.08,463.08 520.30,462.28 520.62,461.52 521.13,460.44"/>
    </edge>
    <edge id=":245242831_1" function="internal">
        <lane id=":245242831_1_0" index="0" disallow="pedestrian bicycle tram rail_urban rail rail_electric rail_fast ship" speed="13.89" length="7.25" shape="516.71,463.77 517.07,461.59 517.33,460.10 517.52,458.60 517.66,456.41"/>
        <lane id=":245242831_1_1" index="1" disallow="pedestrian bicycle tram rail_urban rail rail_electric rail_fast ship" speed="13.89" length="7.25" shape="513.55,463.28 513.90,461.20 514.15,459.78 514.33,458.36 514.46,456.26"/>
    </edge>
    <edge id=":245243240_0" function="internal">
        <lane id=":245243240_0_0" index="0" disallow="pedestrian bicycle tram rail_urban rail rail_electric rail_fast ship" speed="15.28" length="26.09" shape="501.51,425.66 501.29,432.11 501.68,437.56 502.05,443.59 501.75,451.74"/>
        <lane id=":245243240_0_1" index="1" disallow="pedestrian bicycle tram rail_urban rail rail_electric rail_fast ship" speed="15.28" length="26.09" shape="504.69,425.98 504.47,432.42 504.86,437.87 505.23,443.88 504.94,452.02"/>
    </edge>
    <edge id=":245243240_2" function="internal">
        <lane id=":245243240_2_0" index="0" allow="private emergency authority army vip passenger hov taxi bus coach delivery truck trailer motorcycle evehicle custom1 custom2" speed="15.28" length="25.80" shape="494.93,425.61 495.26,432.04 495.66,437.37 495.80,443.23 495.38,451.20"/>
        <lane id=":245243240_2_1" index="1" allow="private emergency authority army vip passenger hov taxi bus coach delivery truck trailer motorcycle evehicle custom1 custom2" speed="15.28" length="25.80" shape="498.13,425.54 498.46,431.99 498.86,437.41 499.00,443.37 498.57,451.47"/>
    </edge>
    <edge id=":245243294_0" function="internal">
        <lane id=":245243294_0_0" index="0" disallow="tram rail_urban rail rail_electric rail_fast ship" speed="13.89" length="14.24" shape="325.06,66.49 312.50,73.22"/>
    </edge>
    <edge id=":245243294_1" function="internal">
        <lane id=":245243294_1_0" index="0" disallow="pedestrian bicycle tram rail_urban rail rail_electric rail_fast ship" speed="6.51" length="9.02" shape="324.43,76.90 323.55,74.59 323.62,72.55 324.64,70.78 326.61,69.29"/>
    </edge>
    <edge id=":245243294_2" function="internal">
        <lane id=":245243294_2_0" index="0" disallow="pedestrian bicycle tram rail_urban rail rail_electric rail_fast ship" speed="7.41" length="11.74" shape="321.63,78.45 319.46,75.22 317.21,73.27 314.89,72.60 312.50,73.22"/>
    </edge>
    <edge id=":245243294_3" function="internal">
        <lane id=":245243294_3_0" index="0" disallow="tram rail_urban rail rail_electric rail_fast ship" speed="13.89" length="14.34" shape="313.97,76.06 326.61,69.29"/>
    </edge>
    <edge id=":245243326_0" function="internal">
        <lane id=":245243326_0_0" index="0" disallow="tram rail_urban rail rail_electric rail_fast ship" speed="13.89" length="14.96" shape="635.36,129.66 632.46,125.93 629.69,123.57 627.14,121.60 624.93,119.06"/>
    </edge>
    <edge id=":245243326_1" function="internal">
        <lane id=":245243326_1_0" index="0" disallow="pedestrian bicycle tram rail_urban rail rail_electric rail_fast ship" speed="7.84" length="4.21" shape="632.63,131.34 630.04,128.24 629.89,128.17"/>
    </edge>
    <edge id=":245243326_4" function="internal">
        <lane id=":245243326_4_0" index="0" disallow="pedestrian bicycle tram rail_urban rail rail_electric rail_fast ship" speed="7.84" length="10.35" shape="629.89,128.17 627.14,126.82 623.91,127.08 620.37,129.02"/>
    </edge>
    <edge id=":245243326_2" function="internal">
        <lane id=":245243326_2_0" index="0" disallow="pedestrian bicycle tram rail_urban rail rail_electric rail_fast ship" speed="8.27" length="14.36" shape="622.29,131.58 625.15,128.77 626.54,125.75 626.47,122.51 624.93,119.06"/>
    </edge>
    <edge id=":245243326_3" function="internal">
        <lane id=":245243326_3_0" index="0" disallow="tram rail_urban rail rail_electric rail_fast ship" speed="13.89" length="14.45" shape="622.23,120.78 629.91,133.02"/>
    </edge>
    <edge id=":245243332_0" function="internal">
        <lane id=":245243332_0_0" index="0" disallow="tram rail_urban rail rail_electric rail_fast ship" speed="13.89" length="6.73" shape="667.63,176.77 666.32,175.36 665.45,174.36 664.64,173.31 663.52,171.73"/>
        <lane id=":245243332_0_1" index="1" disallow="tram rail_urban rail rail_electric rail_fast ship" speed="13.89" length="6.73" shape="665.30,178.96 663.89,177.45 662.96,176.38 662.11,175.26 660.91,173.58"/>
    </edge>
    <edge id=":245243332_2" function="internal">
        <lane id=":245243332_2_0" index="0" disallow="tram rail_urban rail rail_electric rail_fast ship" speed="13.89" length="7.91" shape="658.29,175.43 659.27,177.66 659.29,179.51 659.41,181.30 660.62,183.33"/>
        <lane id=":245243332_2_1" index="1" disallow="tram rail_urban rail rail_electric rail_fast ship" speed="13.89" length="7.91" shape="658.29,175.43 659.57,177.21 660.48,178.40 661.47,179.54 662.96,181.14"/>
    </edge>
    <edge id=":245243337_0" function="internal">
        <lane id=":245243337_0_0" index="0" disallow="tram rail_urban rail rail_electric rail_fast ship" speed="13.89" length="6.18" shape="728.37,217.97 726.58,217.54 725.38,217.19 724.20,216.75 722.51,216.04"/>
    </edge>
    <edge id=":245243337_1" function="internal">
        <lane id=":245243337_1_0" index="0" disallow="tram rail_urban rail rail_electric rail_fast ship" speed="13.89" length="7.88" shape="720.01,221.93 722.17,222.31 723.74,221.74 725.36,221.06 727.63,221.09"/>
    </edge>
    <edge id=":245248292_0" function="internal">
        <lane id=":245248292_0_0" index="0" disallow="pedestrian bicycle tram rail_urban rail rail_electric rail_fast ship" speed="13.89" length="8.85" shape="516.01,112.17 516.41,114.60 516.60,116.28 516.63,117.98 516.55,120.44"/>
        <lane id=":245248292_0_1" index="1" disallow="pedestrian bicycle tram rail_urban rail rail_electric rail_fast ship" speed="13.89" length="8.85" shape="516.01,112.17 516.95,114.75 518.24,116.34 519.35,117.95 519.75,120.56"/>
    </edge>
    <edge id=":245248320_0" function="internal">
        <lane id=":245248320_0_0" index="0" allow="private emergency authority army vip passenger hov taxi bus coach delivery truck trailer motorcycle evehicle custom1 custom2" speed="19.45" length="3.05" shape="503.15,201.59 506.10,202.41"/>
    </edge>
    <edge id=":245248320_1" function="internal">
        <lane id=":245248320_1_0" index="0" allow="private emergency authority army vip passenger hov taxi bus coach delivery truck trailer motorcycle evehicle custom1 custom2" speed="25.00" length="3.07" shape="504.00,198.51 506.95,199.34"/>
        <lane id=":245248320_1_1" index="1" allow="private emergency authority army vip passenger hov taxi bus coach delivery truck trailer motorcycle evehicle custom1 custom2" speed="25.00" length="3.07" shape="504.86,195.42 507.81,196.26"/>
        <lane id=":245248320_1_2" index="2" allow="private emergency authority army vip passenger hov taxi bus coach delivery truck trailer motorcycle evehicle custom1 custom2" speed="25.00" length="3.07" shape="505.71,192.34 508.66,193.18"/>
    </edge>
    <edge id=":245248364_0" function="internal">
        <lane id=":245248364_0_0" index="0" allow="private emergency authority army vip passenger hov taxi bus coach delivery truck trailer motorcycle evehicle custom1 custom2" speed="13.89" length="16.06" shape="528.16,271.07 527.26,267.24 526.28,263.22 525.55,259.18 525.41,255.30"/>
    </edge>
    <edge id=":245248364_1" function="internal">
        <lane id=":245248364_1_0" index="0" disallow="pedestrian bicycle tram rail_urban rail rail_electric rail_fast ship" speed="13.89" length="16.06" shape="524.62,271.34 525.41,255.30"/>
    </edge>
    <edge id=":245248386_0" function="internal">
        <lane id=":245248386_0_0" index="0" allow="private emergency authority army vip passenger hov taxi bus coach delivery truck trailer motorcycle evehicle custom1 custom2" speed="19.45" length="3.15" shape="839.98,299.26 843.04,299.99"/>
    </edge>
    <edge id=":245248386_1" function="internal">
        <lane id=":245248386_1_0" index="0" allow="private emergency authority army vip passenger hov taxi bus coach delivery truck trailer motorcycle evehicle custom1 custom2" speed="25.00" length="2.95" shape="840.90,296.09 843.84,296.89"/>
        <lane id=":245248386_1_1" index="1" allow="private emergency authority army vip passenger hov taxi bus coach delivery truck trailer motorcycle evehicle custom1 custom2" speed="25.00" length="2.95" shape="841.79,293.01 844.64,293.79"/>
        <lane id=":245248386_1_2" index="2" allow="private emergency authority army vip passenger hov taxi bus coach delivery truck trailer motorcycle evehicle custom1 custom2" speed="25.00" length="2.95" shape="842.68,289.94 845.43,290.69"/>
    </edge>
    <edge id=":25455292_0" function="internal">
        <lane id=":25455292_0_0" index="0" allow="private emergency authority army vip passenger hov taxi bus coach delivery truck trailer motorcycle evehicle custom1 custom2" speed="9.05" length="3.34" shape="286.76,145.23 287.71,145.53 288.38,145.72 289.05,145.77 290.01,145.61"/>
        <lane id=":25455292_0_1" index="1" allow="private emergency authority army vip passenger hov taxi bus coach delivery truck trailer motorcycle evehicle custom1 custom2" speed="6.63" length="1.70" shape="287.64,142.15 289.31,142.49"/>
    </edge>
    <edge id=":25455292_2" function="internal">
        <lane id=":25455292_2_0" index="0" allow="private emergency authority army vip passenger hov taxi bus coach delivery truck trailer motorcycle evehicle custom1 custom2" speed="25.00" length="3.04" shape="288.52,139.08 291.48,139.91"/>
        <lane id=":25455292_2_1" index="1" allow="private emergency authority army vip passenger hov taxi bus coach delivery truck trailer motorcycle evehicle custom1 custom2" speed="25.00" length="3.04" shape="289.40,136.00 292.33,136.82"/>
        <lane id=":25455292_2_2" index="2" allow="private emergency authority army vip passenger hov taxi bus coach delivery truck trailer motorcycle evehicle custom1 custom2" speed="25.00" length="3.04" shape="290.28,132.92 293.18,133.74"/>
    </edge>
    <edge id=":259577231_0" function="internal">
        <lane id=":259577231_0_0" index="0" disallow="tram rail_urban rail rail_electric rail_fast ship" speed="8.65" length="9.47" shape="434.23,299.09 435.58,297.72 437.47,296.76 439.88,296.23 442.83,296.11"/>
    </edge>
    <edge id=":259577231_1" function="internal">
        <lane id=":259577231_1_0" index="0" disallow="tram rail_urban rail rail_electric rail_fast ship" speed="11.46" length="10.08" shape="432.88,287.66 433.27,290.64 433.44,292.78 433.02,294.77 431.59,297.29"/>
    </edge>
    <edge id=":259577231_2" function="internal">
        <lane id=":259577231_2_0" index="0" disallow="tram rail_urban rail rail_electric rail_fast ship" speed="8.48" length="14.49" shape="432.88,287.66 433.81,291.26 435.77,293.86 438.78,295.48 442.83,296.11"/>
    </edge>
    <edge id=":4598835265_0" function="internal">
        <lane id=":4598835265_0_0" index="0" disallow="tram rail_urban rail rail_electric rail_fast ship" speed="13.89" length="3.78" shape="619.39,110.39 617.27,107.26"/>
    </edge>
    <edge id=":4598835265_1" function="internal">
        <lane id=":4598835265_1_0" index="0" disallow="pedestrian bicycle tram rail_urban rail rail_electric rail_fast ship" speed="7.82" length="3.98" shape="611.80,110.59 612.39,111.60 612.68,112.37 612.75,113.19 612.66,114.36"/>
    </edge>
    <edge id=":4598835265_2" function="internal">
        <lane id=":4598835265_2_0" index="0" disallow="tram rail_urban rail rail_electric rail_fast ship" speed="13.89" length="3.85" shape="614.54,108.93 616.69,112.12"/>
    </edge>
    <edge id=":5240241515_0" function="internal">
        <lane id=":5240241515_0_0" index="0" disallow="pedestrian bicycle tram rail_urban rail rail_electric rail_fast ship" speed="13.89" length="5.68" shape="580.35,157.07 579.17,158.24 578.55,159.26 577.90,160.24 576.63,161.29"/>
    </edge>
    <edge id=":5240241515_1" function="internal">
        <lane id=":5240241515_1_0" index="0" disallow="pedestrian bicycle tram rail_urban rail rail_electric rail_fast ship" speed="3.65" length="1.44" shape="580.35,157.07 579.89,158.44"/>
    </edge>
    <edge id=":5240241515_3" function="internal">
        <lane id=":5240241515_3_0" index="0" disallow="pedestrian bicycle tram rail_urban rail rail_electric rail_fast ship" speed="3.65" length="3.23" shape="579.89,158.44 580.06,159.32 580.86,159.71 582.30,159.61"/>
    </edge>
    <edge id=":5240241515_2" function="internal">
        <lane id=":5240241515_2_0" index="0" allow="private emergency authority army vip passenger hov taxi bus coach delivery truck trailer motorcycle evehicle custom1 custom2" speed="8.68" length="4.91" shape="579.89,163.72 580.27,162.31 580.63,161.35 581.22,160.54 582.30,159.61"/>
    </edge>
    <edge id=":5240241519_0" function="internal">
        <lane id=":5240241519_0_0" index="0" allow="private emergency authority army vip passenger hov taxi bus coach delivery truck trailer motorcycle evehicle custom1 custom2" speed="13.89" length="13.19" shape="597.45,188.21 594.30,186.84 591.66,185.18 589.13,183.29 586.31,181.26"/>
    </edge>
    <edge id=":5240241519_1" function="internal">
        <lane id=":5240241519_1_0" index="0" allow="private emergency authority army vip passenger hov taxi bus coach delivery truck trailer motorcycle evehicle custom1 custom2" speed="13.89" length="13.19" shape="597.45,188.21 584.78,184.56"/>
    </edge>
    <edge id=":5240241520_0" function="internal">
        <lane id=":5240241520_0_0" index="0" disallow="tram rail_urban rail rail_electric rail_fast ship" speed="13.89" length="7.50" shape="645.80,146.65 641.93,140.34"/>
        <lane id=":5240241520_0_1" index="1" disallow="tram rail_urban rail rail_electric rail_fast ship" speed="13.89" length="7.50" shape="643.19,148.50 639.21,142.02"/>
    </edge>
    <edge id=":5240241520_2" function="internal">
        <lane id=":5240241520_2_0" index="0" disallow="pedestrian bicycle tram rail_urban rail rail_electric rail_fast ship" speed="10.99" length="7.71" shape="633.97,146.84 636.19,147.47 637.79,147.90 639.13,148.68 640.57,150.35"/>
    </edge>
    <edge id=":5240241520_3" function="internal">
        <lane id=":5240241520_3_0" index="0" disallow="tram rail_urban rail rail_electric rail_fast ship" speed="13.89" length="7.81" shape="636.49,143.70 640.57,150.35"/>
    </edge>
    <edge id=":5280785034_0" function="internal">
        <lane id=":5280785034_0_0" index="0" disallow="tram rail_urban rail rail_electric rail_fast ship" speed="13.89" length="0.43" shape="451.68,282.68 451.64,282.56 451.61,282.47 451.57,282.39 451.51,282.28"/>
    </edge>
    <edge id=":565323699_0" function="internal">
        <lane id=":565323699_0_0" index="0" disallow="tram rail_urban rail rail_electric rail_fast ship" speed="3.65" length="4.67" shape="53.06,25.82 51.70,26.29 51.11,26.97 51.30,27.84 52.26,28.92"/>
    </edge>
    <edge id=":6095894404_0" function="internal">
        <lane id=":6095894404_0_0" index="0" allow="private emergency authority army vip passenger hov taxi bus coach delivery truck trailer motorcycle evehicle custom1 custom2" speed="25.00" length="8.20" shape="477.12,191.09 479.36,192.23 480.55,193.70 481.74,195.16 483.98,196.30"/>
        <lane id=":6095894404_0_1" index="1" allow="private emergency authority army vip passenger hov taxi bus coach delivery truck trailer motorcycle evehicle custom1 custom2" speed="25.00" length="8.20" shape="477.12,191.09 484.83,193.22"/>
        <lane id=":6095894404_0_2" index="2" allow="private emergency authority army vip passenger hov taxi bus coach delivery truck trailer motorcycle evehicle custom1 custom2" speed="25.00" length="8.20" shape="477.97,188.01 485.68,190.13"/>
        <lane id=":6095894404_0_3" index="3" allow="private emergency authority army vip passenger hov taxi bus coach delivery truck trailer motorcycle evehicle custom1 custom2" speed="25.00" length="8.20" shape="478.82,184.92 486.53,187.05"/>
    </edge>
    <edge id=":6095894765_0" function="internal">
        <lane id=":6095894765_0_0" index="0" allow="private emergency authority army vip passenger hov taxi bus coach delivery truck trailer motorcycle evehicle custom1 custom2" speed="25.00" length="8.51" shape="256.94,131.71 259.20,133.14 260.13,135.12 261.06,137.11 263.32,138.53"/>
        <lane id=":6095894765_0_1" index="1" allow="private emergency authority army vip passenger hov taxi bus coach delivery truck trailer motorcycle evehicle custom1 custom2" speed="25.00" length="8.51" shape="256.94,131.71 259.18,132.61 260.57,133.58 261.96,134.56 264.20,135.46"/>
        <lane id=":6095894765_0_2" index="2" allow="private emergency authority army vip passenger hov taxi bus coach delivery truck trailer motorcycle evehicle custom1 custom2" speed="25.00" length="8.51" shape="257.83,128.63 260.06,129.54 261.45,130.51 262.84,131.48 265.08,132.38"/>