<?xml version="1.0" encoding="UTF-8"?>

<!-- generated on 2023-07-17 10:57:55 by Eclipse SUMO netconvert Version 1.17.0
<configuration xmlns:xsi="http://www.w3.org/2001/XMLSchema-instance" xsi:noNamespaceSchemaLocation="http://sumo.dlr.de/xsd/netconvertConfiguration.xsd">

    <input>
        <sumo-net-file value="osm.net.xml.gz"/>
    </input>

    <output>
        <output-file value="osm.net.xml"/>
        <output.street-names value="true"/>
    </output>

    <processing>
        <geometry.min-radius.fix.railways value="false"/>
        <geometry.max-grade.fix value="false"/>
        <offset.disable-normalization value="true"/>
        <lefthand value="1"/>
    </processing>

    <junctions>
        <no-turnarounds value="true"/>
        <junctions.corner-detail value="5"/>
        <junctions.limit-turn-speed value="5.50"/>
        <rectangular-lane-cut value="0"/>
    </junctions>

    <pedestrian>
        <walkingareas value="0"/>
    </pedestrian>

</configuration>
-->

<net version="1.16" junctionCornerDetail="5" lefthand="true" limitTurnSpeed="5.50" xmlns:xsi="http://www.w3.org/2001/XMLSchema-instance" xsi:noNamespaceSchemaLocation="http://sumo.dlr.de/xsd/net_file.xsd">

    <location netOffset="-373127.06,-142118.53" convBoundary="0.00,0.00,386.85,1291.13" origBoundary="103.859611,1.285533,103.863090,1.297212" projParameter="+proj=utm +zone=48 +ellps=WGS84 +datum=WGS84 +units=m +no_defs"/>

    <type id="highway.bridleway" priority="1" numLanes="1" speed="2.78" allow="pedestrian" oneway="1" width="2.00"/>
    <type id="highway.bus_guideway" priority="1" numLanes="1" speed="27.78" allow="bus" oneway="1"/>
    <type id="highway.cycleway" priority="1" numLanes="1" speed="5.56" allow="bicycle" oneway="0" width="1.00"/>
    <type id="highway.footway" priority="1" numLanes="1" speed="2.78" allow="pedestrian" oneway="1" width="2.00"/>
    <type id="highway.ford" priority="1" numLanes="1" speed="2.78" allow="army" oneway="0"/>
    <type id="highway.living_street" priority="2" numLanes="1" speed="2.78" disallow="tram rail_urban rail rail_electric rail_fast ship" oneway="0"/>
    <type id="highway.motorway" priority="14" numLanes="2" speed="39.44" allow="private emergency authority army vip passenger hov taxi bus coach delivery truck trailer motorcycle evehicle custom1 custom2" oneway="1"/>
    <type id="highway.motorway_link" priority="9" numLanes="1" speed="22.22" allow="private emergency authority army vip passenger hov taxi bus coach delivery truck trailer motorcycle evehicle custom1 custom2" oneway="1"/>
    <type id="highway.path" priority="1" numLanes="1" speed="5.56" allow="pedestrian bicycle" oneway="0" width="2.00"/>
    <type id="highway.pedestrian" priority="1" numLanes="1" speed="2.78" allow="pedestrian" oneway="1" width="2.00"/>
    <type id="highway.primary" priority="12" numLanes="2" speed="27.78" disallow="tram rail_urban rail rail_electric rail_fast ship" oneway="0"/>
    <type id="highway.primary_link" priority="7" numLanes="1" speed="22.22" disallow="tram rail_urban rail rail_electric rail_fast ship" oneway="0"/>
    <type id="highway.raceway" priority="15" numLanes="2" speed="83.33" allow="vip" oneway="0"/>
    <type id="highway.residential" priority="3" numLanes="1" speed="13.89" disallow="tram rail_urban rail rail_electric rail_fast ship" oneway="0"/>
    <type id="highway.secondary" priority="11" numLanes="1" speed="27.78" disallow="tram rail_urban rail rail_electric rail_fast ship" oneway="0"/>
    <type id="highway.secondary_link" priority="6" numLanes="1" speed="22.22" disallow="tram rail_urban rail rail_electric rail_fast ship" oneway="0"/>
    <type id="highway.service" priority="1" numLanes="1" speed="5.56" allow="pedestrian delivery bicycle" oneway="0"/>
    <type id="highway.stairs" priority="1" numLanes="1" speed="1.39" allow="pedestrian" oneway="1" width="2.00"/>
    <type id="highway.step" priority="1" numLanes="1" speed="1.39" allow="pedestrian" oneway="1" width="2.00"/>
    <type id="highway.steps" priority="1" numLanes="1" speed="1.39" allow="pedestrian" oneway="1" width="2.00"/>
    <type id="highway.tertiary" priority="10" numLanes="1" speed="22.22" disallow="tram rail_urban rail rail_electric rail_fast ship" oneway="0"/>
    <type id="highway.tertiary_link" priority="5" numLanes="1" speed="22.22" disallow="tram rail_urban rail rail_electric rail_fast ship" oneway="0"/>
    <type id="highway.track" priority="1" numLanes="1" speed="5.56" allow="pedestrian motorcycle moped bicycle" oneway="0"/>
    <type id="highway.trunk" priority="13" numLanes="2" speed="27.78" disallow="pedestrian bicycle tram rail_urban rail rail_electric rail_fast ship" oneway="0"/>
    <type id="highway.trunk_link" priority="8" numLanes="1" speed="22.22" disallow="pedestrian bicycle tram rail_urban rail rail_electric rail_fast ship" oneway="0"/>
    <type id="highway.unclassified" priority="4" numLanes="1" speed="13.89" disallow="tram rail_urban rail rail_electric rail_fast ship" oneway="0"/>
    <type id="highway.unsurfaced" priority="1" numLanes="1" speed="8.33" disallow="tram rail_urban rail rail_electric rail_fast ship" oneway="0"/>
    <type id="railway.highspeed" priority="21" numLanes="1" speed="69.44" allow="rail_fast" oneway="1"/>
    <type id="railway.light_rail" priority="19" numLanes="1" speed="27.78" allow="rail_urban" oneway="1"/>
    <type id="railway.preserved" priority="16" numLanes="1" speed="27.78" allow="rail" oneway="1"/>
    <type id="railway.rail" priority="20" numLanes="1" speed="44.44" allow="rail" oneway="1"/>
    <type id="railway.subway" priority="18" numLanes="1" speed="27.78" allow="rail_urban" oneway="1"/>
    <type id="railway.tram" priority="17" numLanes="1" speed="13.89" allow="tram" oneway="1"/>

    <edge id=":1145428485_0" function="internal">
        <lane id=":1145428485_0_0" index="0" disallow="pedestrian bicycle tram rail_urban rail rail_electric rail_fast ship" speed="13.89" length="8.30" shape="161.67,952.14 160.76,954.39 159.41,955.63 158.02,956.87 157.01,959.10"/>
        <lane id=":1145428485_0_1" index="1" disallow="pedestrian bicycle tram rail_urban rail rail_electric rail_fast ship" speed="13.89" length="8.30" shape="161.67,952.14 160.13,959.80"/>
        <lane id=":1145428485_0_2" index="2" disallow="pedestrian bicycle tram rail_urban rail rail_electric rail_fast ship" speed="13.89" length="8.30" shape="164.82,952.69 163.26,960.50"/>
        <lane id=":1145428485_0_3" index="3" disallow="pedestrian bicycle tram rail_urban rail rail_electric rail_fast ship" speed="13.89" length="8.30" shape="164.82,952.69 164.88,955.23 165.67,956.96 166.43,958.69 166.38,961.20"/>
    </edge>
    <edge id=":1145428490_0" function="internal">
        <lane id=":1145428490_0_0" index="0" disallow="pedestrian bicycle tram rail_urban rail rail_electric rail_fast ship" speed="13.89" length="0.22" shape="184.71,814.96 184.70,815.07"/>
        <lane id=":1145428490_0_1" index="1" disallow="pedestrian bicycle tram rail_urban rail rail_electric rail_fast ship" speed="13.89" length="0.22" shape="187.90,815.20 187.87,815.53"/>
    </edge>
    <edge id=":1188762706_0" function="internal">
        <lane id=":1188762706_0_0" index="0" disallow="tram rail_urban rail rail_electric rail_fast ship" speed="13.89" length="6.41" shape="56.04,1154.32 54.42,1155.11 53.14,1155.25 51.81,1155.29 50.03,1155.79"/>
        <lane id=":1188762706_0_1" index="1" disallow="tram rail_urban rail rail_electric rail_fast ship" speed="13.89" length="6.41" shape="56.04,1154.32 54.58,1155.60 53.77,1156.73 52.91,1157.76 51.29,1158.73"/>
    </edge>
    <edge id=":1538307248_0" function="internal">
        <lane id=":1538307248_0_0" index="0" disallow="pedestrian bicycle tram rail_urban rail rail_electric rail_fast ship" speed="13.89" length="20.55" shape="270.38,1196.71 265.35,1199.96 261.93,1202.29 258.30,1204.17 252.69,1206.08"/>
        <lane id=":1538307248_0_1" index="1" disallow="pedestrian bicycle tram rail_urban rail rail_electric rail_fast ship" speed="13.89" length="20.55" shape="272.03,1199.46 266.88,1202.75 263.19,1205.20 259.31,1207.19 253.58,1209.15"/>
    </edge>
    <edge id=":1538307248_2" function="internal">
        <lane id=":1538307248_2_0" index="0" disallow="pedestrian bicycle tram rail_urban rail rail_electric rail_fast ship" speed="13.89" length="21.15" shape="274.03,1203.79 270.10,1204.56 265.55,1205.72 260.13,1207.25 253.58,1209.15"/>
    </edge>
    <edge id=":1538307450_0" function="internal">
        <lane id=":1538307450_0_0" index="0" disallow="tram rail_urban rail rail_electric rail_fast ship" speed="16.67" length="9.31" shape="316.58,1134.83 316.32,1137.27 316.01,1138.94 315.48,1140.55 314.54,1142.82"/>
        <lane id=":1538307450_0_1" index="1" disallow="tram rail_urban rail rail_electric rail_fast ship" speed="16.67" length="9.31" shape="316.58,1134.83 316.79,1137.62 317.54,1139.57 318.05,1141.46 317.50,1144.06"/>
        <lane id=":1538307450_0_2" index="2" disallow="tram rail_urban rail rail_electric rail_fast ship" speed="16.67" length="9.31" shape="319.74,1135.41 319.92,1138.40 320.63,1140.49 321.08,1142.52 320.45,1145.30"/>
    </edge>
    <edge id=":1783639818_0" function="internal">
        <lane id=":1783639818_0_0" index="0" disallow="pedestrian bicycle tram rail_urban rail rail_electric rail_fast ship" speed="15.28" length="19.88" shape="306.18,1162.79 303.49,1167.90 300.77,1170.86 297.55,1173.50 293.33,1177.66"/>
        <lane id=":1783639818_0_1" index="1" disallow="pedestrian bicycle tram rail_urban rail rail_electric rail_fast ship" speed="15.28" length="21.25" shape="309.13,1164.03 306.22,1169.56 303.29,1172.85 299.87,1175.72 295.52,1180.02"/>
    </edge>
    <edge id=":1783639818_2" function="internal">
        <lane id=":1783639818_2_0" index="0" disallow="tram rail_urban rail rail_electric rail_fast ship" speed="16.67" length="21.12" shape="309.13,1164.03 306.42,1169.73 304.12,1173.49 301.80,1177.14 299.07,1182.51"/>
        <lane id=":1783639818_2_1" index="1" disallow="tram rail_urban rail rail_electric rail_fast ship" speed="16.67" length="21.12" shape="312.08,1165.26 309.36,1170.99 307.05,1174.78 304.72,1178.45 301.98,1183.83"/>
    </edge>
    <edge id=":1783639826_0" function="internal">
        <lane id=":1783639826_0_0" index="0" disallow="pedestrian bicycle tram rail_urban rail rail_electric rail_fast ship" speed="11.60" length="14.43" shape="192.50,1197.82 190.00,1195.12 188.18,1193.13 187.17,1190.88 187.06,1187.43"/>
        <lane id=":1783639826_0_1" index="1" disallow="pedestrian bicycle tram rail_urban rail rail_electric rail_fast ship" speed="12.54" length="14.43" shape="189.81,1199.60 186.94,1196.38 184.96,1193.95 183.92,1191.24 183.88,1187.15"/>
        <lane id=":1783639826_0_2" index="2" disallow="pedestrian bicycle tram rail_urban rail rail_electric rail_fast ship" speed="13.39" length="14.43" shape="189.81,1199.60 186.18,1196.16 183.11,1193.89 181.12,1191.29 180.69,1186.86"/>
    </edge>
    <edge id=":1783639826_3" function="internal">
        <lane id=":1783639826_3_0" index="0" disallow="pedestrian bicycle tram rail_urban rail rail_electric rail_fast ship" speed="16.67" length="13.24" shape="185.85,1200.62 187.06,1187.43"/>
        <lane id=":1783639826_3_1" index="1" disallow="pedestrian bicycle tram rail_urban rail rail_electric rail_fast ship" speed="16.67" length="13.24" shape="182.66,1200.33 183.88,1187.15"/>
        <lane id=":1783639826_3_2" index="2" disallow="pedestrian bicycle tram rail_urban rail rail_electric rail_fast ship" speed="16.67" length="13.24" shape="179.47,1200.03 180.69,1186.86"/>
        <lane id=":1783639826_3_3" index="3" disallow="pedestrian bicycle tram rail_urban rail rail_electric rail_fast ship" speed="16.67" length="13.24" shape="176.29,1199.74 177.50,1186.57"/>
    </edge>
    <edge id=":1832823579_0" function="internal">
        <lane id=":1832823579_0_0" index="0" allow="bus bicycle" speed="3.65" length="4.67" shape="14.53,450.84 13.38,451.71 13.02,452.53 13.46,453.30 14.71,454.04"/>
    </edge>
    <edge id=":1832823668_0" function="internal">
        <lane id=":1832823668_0_0" index="0" disallow="tram rail_urban rail rail_electric rail_fast ship" speed="13.89" length="11.32" shape="43.12,663.77 45.75,662.61 46.92,660.33 48.09,658.05 50.71,656.89"/>
        <lane id=":1832823668_0_1" index="1" disallow="tram rail_urban rail rail_electric rail_fast ship" speed="13.89" length="11.32" shape="42.93,660.57 45.55,659.41 46.72,657.13 47.89,654.86 50.52,653.69"/>
        <lane id=":1832823668_0_2" index="2" disallow="tram rail_urban rail rail_electric rail_fast ship" speed="13.89" length="11.32" shape="42.73,657.38 45.35,656.22 46.52,653.94 47.70,651.66 50.32,650.50"/>
        <lane id=":1832823668_0_3" index="3" disallow="tram rail_urban rail rail_electric rail_fast ship" speed="13.89" length="11.32" shape="42.53,654.19 45.16,653.02 46.33,650.75 47.50,648.47 50.12,647.31"/>
        <lane id=":1832823668_0_4" index="4" disallow="tram rail_urban rail rail_electric rail_fast ship" speed="13.89" length="11.32" shape="42.34,650.99 44.96,649.83 46.13,647.55 47.30,645.28 49.93,644.11"/>
        <lane id=":1832823668_0_5" index="5" disallow="tram rail_urban rail rail_electric rail_fast ship" speed="13.89" length="11.32" shape="42.34,650.99 45.25,649.31 46.03,645.96 46.82,642.60 49.73,640.92"/>
    </edge>
    <edge id=":1832823668_6" function="internal">
        <lane id=":1832823668_6_0" index="0" allow="bus bicycle" speed="3.65" length="4.67" shape="42.34,650.99 43.48,650.12 43.83,649.30 43.39,648.52 42.14,647.80"/>
    </edge>
    <edge id=":1833793772_0" function="internal">
        <lane id=":1833793772_0_0" index="0" disallow="tram rail_urban rail rail_electric rail_fast ship" speed="13.89" length="9.79" shape="323.92,440.78 321.33,438.80 319.80,436.95 318.15,435.45 315.21,434.54"/>
        <lane id=":1833793772_0_1" index="1" disallow="tram rail_urban rail rail_electric rail_fast ship" speed="13.89" length="9.79" shape="322.35,443.57 320.07,441.76 318.77,440.00 317.37,438.57 314.77,437.71"/>
        <lane id=":1833793772_0_2" index="2" disallow="tram rail_urban rail rail_electric rail_fast ship" speed="13.89" length="9.79" shape="322.35,443.57 320.13,442.36 318.53,441.66 316.83,441.25 314.33,440.88"/>
    </edge>
    <edge id=":233879721_0" function="internal">
        <lane id=":233879721_0_0" index="0" disallow="tram rail_urban rail rail_electric rail_fast ship" speed="10.55" length="10.60" shape="379.73,617.16 379.69,614.33 379.60,612.26 380.06,610.44 381.70,608.37"/>
        <lane id=":233879721_0_1" index="1" disallow="tram rail_urban rail rail_electric rail_fast ship" speed="11.76" length="10.60" shape="376.54,616.99 376.55,613.46 376.60,610.89 377.34,608.65 379.47,606.08"/>
    </edge>
    <edge id=":233879721_2" function="internal">
        <lane id=":233879721_2_0" index="0" disallow="tram rail_urban rail rail_electric rail_fast ship" speed="13.89" length="10.71" shape="372.84,614.86 375.60,613.11 377.51,611.92 379.30,610.58 381.70,608.37"/>
        <lane id=":233879721_2_1" index="1" disallow="tram rail_urban rail rail_electric rail_fast ship" speed="13.89" length="10.71" shape="371.08,612.18 373.70,610.53 375.51,609.42 377.20,608.16 379.47,606.08"/>
    </edge>
    <edge id=":234839472_0" function="internal">
        <lane id=":234839472_0_0" index="0" disallow="pedestrian bicycle tram rail_urban rail rail_electric rail_fast ship" speed="15.28" length="0.23" shape="197.67,346.92 197.66,347.21"/>
        <lane id=":234839472_0_1" index="1" disallow="pedestrian bicycle tram rail_urban rail rail_electric rail_fast ship" speed="15.28" length="0.23" shape="200.86,347.15 200.85,347.32"/>
    </edge>
    <edge id=":234839739_0" function="internal">
        <lane id=":234839739_0_0" index="0" disallow="pedestrian bicycle tram rail_urban rail rail_electric rail_fast ship" speed="16.67" length="8.65" shape="184.90,1140.04 185.62,1137.65 186.84,1136.21 188.02,1134.77 188.63,1132.38"/>
        <lane id=":234839739_0_1" index="1" disallow="pedestrian bicycle tram rail_urban rail rail_electric rail_fast ship" speed="16.67" length="8.65" shape="181.72,1139.75 182.43,1137.41 183.64,1136.00 184.82,1134.59 185.43,1132.23"/>
    </edge>
    <edge id=":26782044_0" function="internal">
        <lane id=":26782044_0_0" index="0" disallow="pedestrian bicycle tram rail_urban rail rail_electric rail_fast ship" speed="13.89" length="6.31" shape="77.68,1139.03 76.44,1140.41 75.46,1141.23 74.36,1141.92 72.79,1142.94"/>
    </edge>
    <edge id=":26782044_1" function="internal">
        <lane id=":26782044_1_0" index="0" disallow="pedestrian bicycle tram rail_urban rail rail_electric rail_fast ship" speed="13.89" length="6.56" shape="80.15,1141.07 78.78,1142.48 77.68,1143.30 76.60,1144.13 75.28,1145.58"/>
        <lane id=":26782044_1_1" index="1" disallow="pedestrian bicycle tram rail_urban rail rail_electric rail_fast ship" speed="13.89" length="6.56" shape="82.62,1143.10 81.27,1144.49 80.18,1145.29 79.11,1146.10 77.82,1147.53"/>
        <lane id=":26782044_1_2" index="2" disallow="pedestrian bicycle tram rail_urban rail rail_electric rail_fast ship" speed="13.89" length="6.56" shape="85.08,1145.14 83.76,1146.51 82.69,1147.29 81.63,1148.08 80.35,1149.49"/>
    </edge>
    <edge id=":3076643620_0" function="internal">
        <lane id=":3076643620_0_0" index="0" disallow="tram rail_urban rail rail_electric rail_fast ship" speed="15.28" length="11.33" shape="309.69,636.40 312.96,636.10 315.20,636.51 317.43,637.38 320.64,638.42"/>
        <lane id=":3076643620_0_1" index="1" disallow="tram rail_urban rail rail_electric rail_fast ship" speed="15.28" length="12.71" shape="309.12,633.25 312.79,632.88 315.32,633.28 317.83,634.18 321.44,635.33"/>
    </edge>
    <edge id=":3076643620_2" function="internal">
        <lane id=":3076643620_2_0" index="0" disallow="tram rail_urban rail rail_electric rail_fast ship" speed="13.89" length="13.41" shape="308.54,630.10 312.41,629.97 315.08,630.76 317.76,631.60 321.65,631.60"/>
        <lane id=":3076643620_2_1" index="1" disallow="tram rail_urban rail rail_electric rail_fast ship" speed="13.89" length="13.41" shape="307.97,626.95 311.87,626.82 314.56,627.61 317.27,628.44 321.19,628.43"/>
    </edge>
    <edge id=":3736885019_0" function="internal">
        <lane id=":3736885019_0_0" index="0" disallow="tram rail_urban rail rail_electric rail_fast ship" speed="13.89" length="7.66" shape="267.55,642.04 269.92,642.12 271.55,642.51 273.17,642.82 275.51,642.65"/>
        <lane id=":3736885019_0_1" index="1" disallow="tram rail_urban rail rail_electric rail_fast ship" speed="13.89" length="7.66" shape="267.55,642.04 269.81,641.63 271.26,640.93 272.71,640.15 274.93,639.50"/>
        <lane id=":3736885019_0_2" index="2" disallow="tram rail_urban rail rail_electric rail_fast ship" speed="13.89" length="7.66" shape="267.32,638.85 269.48,638.44 270.86,637.75 272.23,636.99 274.36,636.35"/>
        <lane id=":3736885019_0_3" index="3" disallow="tram rail_urban rail rail_electric rail_fast ship" speed="13.89" length="7.66" shape="267.10,635.66 269.15,635.26 270.46,634.58 271.76,633.82 273.78,633.20"/>
    </edge>
    <edge id=":410472692_0" function="internal">
        <lane id=":410472692_0_0" index="0" disallow="tram rail_urban rail rail_electric rail_fast ship" speed="13.89" length="5.56" shape="275.60,435.27 272.59,430.70"/>
        <lane id=":410472692_0_1" index="1" disallow="tram rail_urban rail rail_electric rail_fast ship" speed="13.89" length="5.56" shape="275.94,438.45 272.75,433.89"/>
        <lane id=":410472692_0_2" index="2" disallow="tram rail_urban rail rail_electric rail_fast ship" speed="13.89" length="5.56" shape="276.27,441.63 272.92,437.09"/>
    </edge>
    <edge id=":410472692_3" function="internal">
        <lane id=":410472692_3_0" index="0" allow="bus bicycle" speed="3.65" length="0.16" shape="273.09,440.28 273.22,440.19"/>
    </edge>
    <edge id=":410472692_4" function="internal">
        <lane id=":410472692_4_0" index="0" allow="bus bicycle" speed="3.65" length="4.51" shape="273.22,440.19 274.24,439.42 274.60,438.60 274.16,437.82 272.92,437.09"/>
    </edge>
    <edge id=":4600854637_0" function="internal">
        <lane id=":4600854637_0_0" index="0" disallow="tram rail_urban rail rail_electric rail_fast ship" speed="13.89" length="13.79" shape="135.46,672.24 135.38,686.02"/>
    </edge>
    <edge id=":4600854637_1" function="internal">
        <lane id=":4600854637_1_0" index="0" disallow="tram rail_urban rail rail_electric rail_fast ship" speed="13.89" length="13.86" shape="131.51,672.90 133.19,676.06 134.41,679.20 135.15,682.47 135.38,686.02"/>
    </edge>
    <edge id=":4600854642_0" function="internal">
        <lane id=":4600854642_0_0" index="0" disallow="tram rail_urban rail rail_electric rail_fast ship" speed="9.07" length="3.81" shape="103.87,653.61 104.99,653.57 105.77,653.63 106.52,653.88 107.53,654.37"/>
    </edge>
    <edge id=":4600854642_1" function="internal">
        <lane id=":4600854642_1_0" index="0" disallow="tram rail_urban rail rail_electric rail_fast ship" speed="13.89" length="9.38" shape="103.67,650.42 113.43,649.70"/>
        <lane id=":4600854642_1_1" index="1" disallow="tram rail_urban rail rail_electric rail_fast ship" speed="13.89" length="9.38" shape="103.48,647.23 113.03,646.52"/>
        <lane id=":4600854642_1_2" index="2" disallow="tram rail_urban rail rail_electric rail_fast ship" speed="13.89" length="9.38" shape="103.28,644.03 112.64,643.35"/>
        <lane id=":4600854642_1_3" index="3" disallow="tram rail_urban rail rail_electric rail_fast ship" speed="13.89" length="9.38" shape="103.08,640.84 112.24,640.17"/>
        <lane id=":4600854642_1_4" index="4" disallow="tram rail_urban rail rail_electric rail_fast ship" speed="13.89" length="9.38" shape="102.89,637.64 111.85,637.00"/>
    </edge>
    <edge id=":4608884008_0" function="internal">
        <lane id=":4608884008_0_0" index="0" disallow="tram rail_urban rail rail_electric rail_fast ship" speed="13.89" length="8.19" shape="134.73,752.87 134.45,755.25 133.88,756.83 133.29,758.42 132.96,760.80"/>
        <lane id=":4608884008_0_1" index="1" disallow="tram rail_urban rail rail_electric rail_fast ship" speed="13.89" length="8.19" shape="134.73,752.87 134.95,755.27 135.48,756.89 135.99,758.50 136.16,760.90"/>
    </edge>
    <edge id=":4726227141_0" function="internal">
        <lane id=":4726227141_0_0" index="0" disallow="tram rail_urban rail rail_electric rail_fast ship" speed="10.20" length="13.32" shape="167.23,652.07 169.62,649.18 172.07,647.10 174.60,645.85 177.20,645.42"/>
        <lane id=":4726227141_0_1" index="1" disallow="tram rail_urban rail rail_electric rail_fast ship" speed="10.89" length="13.32" shape="165.39,649.16 167.96,646.14 170.78,643.98 173.85,642.67 177.18,642.22"/>
    </edge>
    <edge id=":4726227141_2" function="internal">
        <lane id=":4726227141_2_0" index="0" disallow="tram rail_urban rail rail_electric rail_fast ship" speed="13.89" length="12.98" shape="164.13,645.09 177.20,645.42"/>
        <lane id=":4726227141_2_1" index="1" disallow="tram rail_urban rail rail_electric rail_fast ship" speed="13.89" length="12.98" shape="164.21,641.89 177.18,642.22"/>
        <lane id=":4726227141_2_2" index="2" disallow="tram rail_urban rail rail_electric rail_fast ship" speed="13.89" length="12.98" shape="164.29,638.69 177.16,639.02"/>
    </edge>
    <edge id=":4732339357_0" function="internal">
        <lane id=":4732339357_0_0" index="0" disallow="tram rail_urban rail rail_electric rail_fast ship" speed="13.89" length="6.04" shape="148.11,732.75 147.91,731.00 147.40,729.85 146.89,728.69 146.70,726.95"/>
        <lane id=":4732339357_0_1" index="1" disallow="tram rail_urban rail rail_electric rail_fast ship" speed="13.89" length="6.04" shape="144.91,732.67 144.71,730.92 144.20,729.76 143.69,728.60 143.50,726.85"/>
    </edge>
    <edge id=":4732339357_2" function="internal">
        <lane id=":4732339357_2_0" index="0" disallow="pedestrian tram rail_urban rail rail_electric rail_fast ship" speed="5.06" length="4.42" shape="141.72,732.59 141.62,731.18 141.27,730.12 140.65,729.41 139.77,729.05"/>
    </edge>
    <edge id=":4732339359_0" function="internal">
        <lane id=":4732339359_0_0" index="0" disallow="tram rail_urban rail rail_electric rail_fast ship" speed="13.89" length="11.25" shape="135.01,722.79 134.90,734.04"/>
    </edge>
    <edge id=":4732339359_1" function="internal">
        <lane id=":4732339359_1_0" index="0" disallow="pedestrian tram rail_urban rail rail_electric rail_fast ship" speed="5.88" length="8.15" shape="139.58,729.01 137.55,728.99 136.10,729.83 135.22,731.51 134.90,734.04"/>
    </edge>
    <edge id=":5165925965_0" function="internal">
        <lane id=":5165925965_0_0" index="0" disallow="tram rail_urban rail rail_electric rail_fast ship" speed="10.09" length="9.23" shape="127.02,431.28 125.39,433.06 124.21,434.37 122.83,435.21 120.59,435.60"/>
        <lane id=":5165925965_0_1" index="1" disallow="tram rail_urban rail rail_electric rail_fast ship" speed="11.39" length="9.23" shape="127.02,431.28 125.25,433.85 124.40,436.22 123.30,437.99 120.76,438.79"/>
    </edge>
    <edge id=":5165925965_2" function="internal">
        <lane id=":5165925965_2_0" index="0" allow="bus bicycle" speed="7.82" length="22.32" shape="127.02,431.28 123.21,436.70 122.07,442.24 123.93,446.47 129.14,447.95"/>
    </edge>
    <edge id=":5165925965_3" function="internal">
        <lane id=":5165925965_3_0" index="0" disallow="tram rail_urban rail rail_electric rail_fast ship" speed="13.89" length="7.88" shape="128.46,435.17 120.59,435.60"/>
        <lane id=":5165925965_3_1" index="1" disallow="tram rail_urban rail rail_electric rail_fast ship" speed="13.89" length="7.88" shape="128.63,438.37 120.76,438.79"/>
        <lane id=":5165925965_3_2" index="2" disallow="tram rail_urban rail rail_electric rail_fast ship" speed="13.89" length="7.88" shape="128.80,441.56 120.93,441.99"/>
        <lane id=":5165925965_3_3" index="3" disallow="tram rail_urban rail rail_electric rail_fast ship" speed="13.89" length="7.88" shape="128.97,444.76 121.10,445.18"/>
    </edge>
    <edge id=":5165925965_7" function="internal">
        <lane id=":5165925965_7_0" index="0" allow="bus bicycle" speed="3.65" length="1.44" shape="128.97,444.76 127.81,445.62"/>
    </edge>
    <edge id=":5165925965_10" function="internal">
        <lane id=":5165925965_10_0" index="0" allow="bus bicycle" speed="3.65" length="3.23" shape="127.81,445.62 127.46,446.44 127.90,447.22 129.14,447.95"/>
    </edge>
    <edge id=":5165925965_8" function="internal">
        <lane id=":5165925965_8_0" index="0" allow="bus bicycle" speed="13.89" length="7.88" shape="121.27,448.38 129.14,447.95"/>
    </edge>
    <edge id=":5165925965_9" function="internal">
        <lane id=":5165925965_9_0" index="0" allow="bus bicycle" speed="3.65" length="1.44" shape="121.27,448.38 122.42,447.52"/>
    </edge>
    <edge id=":5165925965_11" function="internal">
        <lane id=":5165925965_11_0" index="0" allow="bus bicycle" speed="3.65" length="3.23" shape="122.42,447.52 122.78,446.70 122.34,445.92 121.10,445.18"/>
    </edge>
    <edge id=":5270879400_0" function="internal">
        <lane id=":5270879400_0_0" index="0" disallow="tram rail_urban rail rail_electric rail_fast ship" speed="13.89" length="7.72" shape="105.76,908.78 103.84,909.85 102.33,910.21 100.78,910.51 98.73,911.39"/>
        <lane id=":5270879400_0_1" index="1" disallow="tram rail_urban rail rail_electric rail_fast ship" speed="13.89" length="7.72" shape="107.63,911.37 105.63,912.51 104.06,912.91 102.45,913.24 100.32,914.18"/>
    </edge>
    <edge id=":5864347585_0" function="internal">
        <lane id=":5864347585_0_0" index="0" allow="bus bicycle" speed="3.65" length="4.67" shape="9.67,649.78 8.52,650.65 8.17,651.48 8.62,652.25 9.87,652.98"/>
    </edge>
    <edge id=":595497896_0" function="internal">
        <lane id=":595497896_0_0" index="0" disallow="tram rail_urban rail rail_electric rail_fast ship" speed="13.89" length="9.22" shape="127.19,865.66 126.69,868.07 126.26,869.71 125.68,871.29 124.72,873.56"/>
        <lane id=":595497896_0_1" index="1" disallow="tram rail_urban rail rail_electric rail_fast ship" speed="13.89" length="9.22" shape="127.19,865.66 127.13,868.40 127.76,870.35 128.22,872.25 127.66,874.83"/>
        <lane id=":595497896_0_2" index="2" disallow="tram rail_urban rail rail_electric rail_fast ship" speed="13.89" length="9.22" shape="130.33,866.30 130.23,869.22 130.82,871.31 131.23,873.34 130.60,876.09"/>
    </edge>
    <edge id=":5992820068_0" function="internal">
        <lane id=":5992820068_0_0" index="0" disallow="pedestrian bicycle tram rail_urban rail rail_electric rail_fast ship" speed="16.67" length="8.21" shape="238.00,375.17 238.05,372.76 238.48,371.12 238.91,369.48 239.00,367.07"/>
    </edge>
    <edge id=":6024734597_0" function="internal">
        <lane id=":6024734597_0_0" index="0" disallow="tram rail_urban rail rail_electric rail_fast ship" speed="13.89" length="8.19" shape="145.04,787.70 145.39,785.30 146.00,783.72 146.60,782.13 146.91,779.73"/>
        <lane id=":6024734597_0_1" index="1" disallow="tram rail_urban rail rail_electric rail_fast ship" speed="13.89" length="8.19" shape="141.84,787.56 142.19,785.18 142.80,783.60 143.40,782.03 143.71,779.65"/>
        <lane id=":6024734597_0_2" index="2" disallow="tram rail_urban rail rail_electric rail_fast ship" speed="13.89" length="8.19" shape="141.84,787.56 141.69,785.17 141.20,783.56 140.70,781.96 140.51,779.57"/>
    </edge>
    <edge id=":634071195_0" function="internal">