<?xml version="1.0" encoding="UTF-8"?>

<!-- generated on 2023-07-19 16:25:51 by Eclipse SUMO netconvert Version 1.17.0
<configuration xmlns:xsi="http://www.w3.org/2001/XMLSchema-instance" xsi:noNamespaceSchemaLocation="http://sumo.dlr.de/xsd/netconvertConfiguration.xsd">

    <input>
        <sumo-net-file value="osm.net.xml.gz"/>
    </input>

    <output>
        <output-file value="osm.net.xml"/>
        <output.street-names value="true"/>
    </output>

    <processing>
        <geometry.min-radius.fix.railways value="false"/>
        <geometry.max-grade.fix value="false"/>
        <offset.disable-normalization value="true"/>
        <lefthand value="1"/>
    </processing>

    <junctions>
        <no-turnarounds value="true"/>
        <junctions.corner-detail value="5"/>
        <junctions.limit-turn-speed value="5.50"/>
        <rectangular-lane-cut value="0"/>
    </junctions>

    <pedestrian>
        <walkingareas value="0"/>
    </pedestrian>

</configuration>
-->

<net version="1.16" junctionCornerDetail="5" lefthand="true" limitTurnSpeed="5.50" xmlns:xsi="http://www.w3.org/2001/XMLSchema-instance" xsi:noNamespaceSchemaLocation="http://sumo.dlr.de/xsd/net_file.xsd">

    <location netOffset="-368364.44,-147163.81" convBoundary="0.00,0.00,1211.26,993.88" origBoundary="103.816791,1.331150,103.827674,1.340144" projParameter="+proj=utm +zone=48 +ellps=WGS84 +datum=WGS84 +units=m +no_defs"/>

    <type id="highway.bridleway" priority="1" numLanes="1" speed="2.78" allow="pedestrian" oneway="1" width="2.00"/>
    <type id="highway.bus_guideway" priority="1" numLanes="1" speed="27.78" allow="bus" oneway="1"/>
    <type id="highway.cycleway" priority="1" numLanes="1" speed="5.56" allow="bicycle" oneway="0" width="1.00"/>
    <type id="highway.footway" priority="1" numLanes="1" speed="2.78" allow="pedestrian" oneway="1" width="2.00"/>
    <type id="highway.ford" priority="1" numLanes="1" speed="2.78" allow="army" oneway="0"/>
    <type id="highway.living_street" priority="2" numLanes="1" speed="2.78" disallow="tram rail_urban rail rail_electric rail_fast ship" oneway="0"/>
    <type id="highway.motorway" priority="14" numLanes="2" speed="39.44" allow="private emergency authority army vip passenger hov taxi bus coach delivery truck trailer motorcycle evehicle custom1 custom2" oneway="1"/>
    <type id="highway.motorway_link" priority="9" numLanes="1" speed="22.22" allow="private emergency authority army vip passenger hov taxi bus coach delivery truck trailer motorcycle evehicle custom1 custom2" oneway="1"/>
    <type id="highway.path" priority="1" numLanes="1" speed="5.56" allow="pedestrian bicycle" oneway="0" width="2.00"/>
    <type id="highway.pedestrian" priority="1" numLanes="1" speed="2.78" allow="pedestrian" oneway="1" width="2.00"/>
    <type id="highway.primary" priority="12" numLanes="2" speed="27.78" disallow="tram rail_urban rail rail_electric rail_fast ship" oneway="0"/>
    <type id="highway.primary_link" priority="7" numLanes="1" speed="22.22" disallow="tram rail_urban rail rail_electric rail_fast ship" oneway="0"/>
    <type id="highway.raceway" priority="15" numLanes="2" speed="83.33" allow="vip" oneway="0"/>
    <type id="highway.residential" priority="3" numLanes="1" speed="13.89" disallow="tram rail_urban rail rail_electric rail_fast ship" oneway="0"/>
    <type id="highway.secondary" priority="11" numLanes="1" speed="27.78" disallow="tram rail_urban rail rail_electric rail_fast ship" oneway="0"/>
    <type id="highway.secondary_link" priority="6" numLanes="1" speed="22.22" disallow="tram rail_urban rail rail_electric rail_fast ship" oneway="0"/>
    <type id="highway.service" priority="1" numLanes="1" speed="5.56" allow="pedestrian delivery bicycle" oneway="0"/>
    <type id="highway.stairs" priority="1" numLanes="1" speed="1.39" allow="pedestrian" oneway="1" width="2.00"/>
    <type id="highway.step" priority="1" numLanes="1" speed="1.39" allow="pedestrian" oneway="1" width="2.00"/>
    <type id="highway.steps" priority="1" numLanes="1" speed="1.39" allow="pedestrian" oneway="1" width="2.00"/>
    <type id="highway.tertiary" priority="10" numLanes="1" speed="22.22" disallow="tram rail_urban rail rail_electric rail_fast ship" oneway="0"/>
    <type id="highway.tertiary_link" priority="5" numLanes="1" speed="22.22" disallow="tram rail_urban rail rail_electric rail_fast ship" oneway="0"/>
    <type id="highway.track" priority="1" numLanes="1" speed="5.56" allow="pedestrian motorcycle moped bicycle" oneway="0"/>
    <type id="highway.trunk" priority="13" numLanes="2" speed="27.78" disallow="pedestrian bicycle tram rail_urban rail rail_electric rail_fast ship" oneway="0"/>
    <type id="highway.trunk_link" priority="8" numLanes="1" speed="22.22" disallow="pedestrian bicycle tram rail_urban rail rail_electric rail_fast ship" oneway="0"/>
    <type id="highway.unclassified" priority="4" numLanes="1" speed="13.89" disallow="tram rail_urban rail rail_electric rail_fast ship" oneway="0"/>
    <type id="highway.unsurfaced" priority="1" numLanes="1" speed="8.33" disallow="tram rail_urban rail rail_electric rail_fast ship" oneway="0"/>
    <type id="railway.highspeed" priority="21" numLanes="1" speed="69.44" allow="rail_fast" oneway="1"/>
    <type id="railway.light_rail" priority="19" numLanes="1" speed="27.78" allow="rail_urban" oneway="1"/>
    <type id="railway.preserved" priority="16" numLanes="1" speed="27.78" allow="rail" oneway="1"/>
    <type id="railway.rail" priority="20" numLanes="1" speed="44.44" allow="rail" oneway="1"/>
    <type id="railway.subway" priority="18" numLanes="1" speed="27.78" allow="rail_urban" oneway="1"/>
    <type id="railway.tram" priority="17" numLanes="1" speed="13.89" allow="tram" oneway="1"/>

    <edge id=":1374823665_0" function="internal">
        <lane id=":1374823665_0_0" index="0" allow="private emergency authority army vip passenger hov taxi bus coach delivery truck trailer motorcycle evehicle custom1 custom2" speed="16.66" length="9.27" shape="138.58,317.39 136.19,316.02 134.60,315.01 133.13,313.82 131.12,311.95"/>
    </edge>
    <edge id=":1374823665_1" function="internal">
        <lane id=":1374823665_1_0" index="0" disallow="pedestrian bicycle tram rail_urban rail rail_electric rail_fast ship" speed="19.44" length="7.97" shape="136.98,320.17 134.93,319.06 133.51,318.34 132.12,317.55 130.22,316.23"/>
        <lane id=":1374823665_1_1" index="1" disallow="pedestrian bicycle tram rail_urban rail rail_electric rail_fast ship" speed="19.44" length="7.97" shape="135.39,322.94 133.31,321.81 131.85,321.09 130.45,320.29 128.51,318.95"/>
        <lane id=":1374823665_1_2" index="2" disallow="pedestrian bicycle tram rail_urban rail rail_electric rail_fast ship" speed="19.44" length="7.97" shape="133.79,325.72 131.68,324.57 130.20,323.84 128.77,323.03 126.80,321.66"/>
    </edge>
    <edge id=":2391203254_0" function="internal">
        <lane id=":2391203254_0_0" index="0" disallow="pedestrian bicycle tram rail_urban rail rail_electric rail_fast ship" speed="8.19" length="6.80" shape="108.36,388.09 110.02,389.66 111.52,390.76 112.85,391.39 114.03,391.56"/>
        <lane id=":2391203254_0_1" index="1" disallow="pedestrian bicycle tram rail_urban rail rail_electric rail_fast ship" speed="6.51" length="4.12" shape="110.66,385.87 111.31,386.57 112.14,387.41 113.02,388.10 113.84,388.37"/>
        <lane id=":2391203254_0_2" index="2" disallow="pedestrian bicycle tram rail_urban rail rail_electric rail_fast ship" speed="4.64" length="1.86" shape="112.96,383.64 113.19,384.14 113.21,384.65 113.28,385.04 113.66,385.17"/>
        <lane id=":2391203254_0_3" index="3" disallow="pedestrian bicycle tram rail_urban rail rail_electric rail_fast ship" speed="4.90" length="2.13" shape="115.25,381.41 115.12,381.79 114.26,381.97 113.45,382.01 113.47,381.98"/>
    </edge>
    <edge id=":2391203254_4" function="internal">
        <lane id=":2391203254_4_0" index="0" disallow="pedestrian bicycle tram rail_urban rail rail_electric rail_fast ship" speed="17.30" length="5.56" shape="117.55,379.19 119.11,380.76 120.30,381.74 121.63,382.48 123.67,383.37"/>
        <lane id=":2391203254_4_1" index="1" disallow="pedestrian bicycle tram rail_urban rail rail_electric rail_fast ship" speed="15.76" length="5.56" shape="119.85,376.96 121.14,378.26 122.12,379.07 123.23,379.69 124.91,380.42"/>
        <lane id=":2391203254_4_2" index="2" disallow="pedestrian bicycle tram rail_urban rail rail_electric rail_fast ship" speed="14.06" length="5.56" shape="122.15,374.73 123.17,375.76 123.95,376.40 124.82,376.89 126.15,377.48"/>
        <lane id=":2391203254_4_3" index="3" disallow="pedestrian bicycle tram rail_urban rail rail_electric rail_fast ship" speed="12.11" length="5.56" shape="124.45,372.51 125.20,373.27 125.77,373.74 126.42,374.10 127.40,374.53"/>
    </edge>
    <edge id=":2619355660_0" function="internal">
        <lane id=":2619355660_0_0" index="0" disallow="tram rail_urban rail rail_electric rail_fast ship" speed="19.44" length="26.37" shape="217.01,603.49 227.45,627.95"/>
        <lane id=":2619355660_0_1" index="1" disallow="tram rail_urban rail rail_electric rail_fast ship" speed="19.44" length="26.37" shape="219.95,602.23 230.34,626.56"/>
        <lane id=":2619355660_0_2" index="2" disallow="tram rail_urban rail rail_electric rail_fast ship" speed="19.44" length="26.37" shape="222.90,600.98 233.22,625.17"/>
        <lane id=":2619355660_0_3" index="3" disallow="tram rail_urban rail rail_electric rail_fast ship" speed="19.44" length="26.37" shape="225.84,599.72 236.10,623.78"/>
    </edge>
    <edge id=":2619355660_4" function="internal">
        <lane id=":2619355660_4_0" index="0" disallow="pedestrian tram rail_urban rail rail_electric rail_fast ship" speed="20.83" length="25.82" shape="229.04,598.60 230.37,602.71 232.42,607.94 235.26,614.45 238.99,622.39"/>
    </edge>
    <edge id=":4747795927_0" function="internal">
        <lane id=":4747795927_0_0" index="0" disallow="tram rail_urban rail rail_electric rail_fast ship" speed="19.44" length="10.51" shape="172.71,464.29 172.37,467.73 171.99,470.10 171.85,472.45 172.27,475.84"/>
        <lane id=":4747795927_0_1" index="1" disallow="tram rail_urban rail rail_electric rail_fast ship" speed="19.44" length="10.51" shape="175.91,464.45 175.58,467.67 175.19,469.89 175.04,472.09 175.41,475.26"/>
        <lane id=":4747795927_0_2" index="2" disallow="tram rail_urban rail rail_electric rail_fast ship" speed="19.44" length="10.51" shape="179.11,464.62 178.78,467.62 178.39,469.68 178.22,471.72 178.56,474.68"/>
        <lane id=":4747795927_0_3" index="3" disallow="tram rail_urban rail rail_electric rail_fast ship" speed="19.44" length="10.51" shape="182.30,464.78 181.99,467.56 181.60,469.47 181.41,471.36 181.71,474.10"/>
    </edge>
    <edge id=":4747795927_4" function="internal">
        <lane id=":4747795927_4_0" index="0" disallow="tram rail_urban rail rail_electric rail_fast ship" speed="7.89" length="7.75" shape="186.35,466.23 185.35,467.54 184.77,469.19 184.60,471.18 184.85,473.52"/>
    </edge>
    <edge id=":481882505-AddedOnRampNode_0" function="internal">
        <lane id=":481882505-AddedOnRampNode_0_0" index="0" disallow="tram rail_urban rail rail_electric rail_fast ship" speed="19.44" length="8.00" shape="274.93,711.46 278.14,718.79"/>
        <lane id=":481882505-AddedOnRampNode_0_1" index="1" disallow="tram rail_urban rail rail_electric rail_fast ship" speed="19.44" length="8.00" shape="277.86,710.17 281.08,717.50"/>
        <lane id=":481882505-AddedOnRampNode_0_2" index="2" disallow="tram rail_urban rail rail_electric rail_fast ship" speed="19.44" length="8.00" shape="280.79,708.89 284.01,716.22"/>
    </edge>
    <edge id=":481882507-AddedOnRampNode_0" function="internal">
        <lane id=":481882507-AddedOnRampNode_0_0" index="0" disallow="tram rail_urban rail rail_electric rail_fast ship" speed="19.44" length="8.00" shape="202.30,567.93 205.04,575.45"/>
        <lane id=":481882507-AddedOnRampNode_0_1" index="1" disallow="tram rail_urban rail rail_electric rail_fast ship" speed="19.44" length="8.00" shape="205.31,566.85 208.06,574.36"/>
        <lane id=":481882507-AddedOnRampNode_0_2" index="2" disallow="tram rail_urban rail rail_electric rail_fast ship" speed="19.44" length="8.00" shape="208.32,565.76 211.07,573.27"/>
        <lane id=":481882507-AddedOnRampNode_0_3" index="3" disallow="tram rail_urban rail rail_electric rail_fast ship" speed="19.44" length="8.00" shape="211.33,564.68 214.08,572.19"/>
    </edge>
    <edge id=":481882941-AddedOffRampNode_0" function="internal">
        <lane id=":481882941-AddedOffRampNode_0_0" index="0" disallow="tram rail_urban rail rail_electric rail_fast ship" speed="19.44" length="8.16" shape="299.11,722.56 298.67,720.09 299.13,718.26 299.59,716.42 299.14,713.95"/>
        <lane id=":481882941-AddedOffRampNode_0_1" index="1" disallow="tram rail_urban rail rail_electric rail_fast ship" speed="19.44" length="8.16" shape="299.11,722.56 296.17,715.13"/>
        <lane id=":481882941-AddedOffRampNode_0_2" index="2" disallow="tram rail_urban rail rail_electric rail_fast ship" speed="19.44" length="8.16" shape="296.13,723.74 293.19,716.30"/>
        <lane id=":481882941-AddedOffRampNode_0_3" index="3" disallow="tram rail_urban rail rail_electric rail_fast ship" speed="19.44" length="8.16" shape="293.16,724.92 290.21,717.47"/>
        <lane id=":481882941-AddedOffRampNode_0_4" index="4" disallow="tram rail_urban rail rail_electric rail_fast ship" speed="19.44" length="8.16" shape="290.18,726.10 287.24,718.65"/>
    </edge>
    <edge id=":496860304_0" function="internal">
        <lane id=":496860304_0_0" index="0" disallow="pedestrian bicycle tram rail_urban rail rail_electric rail_fast ship" speed="6.06" length="8.88" shape="269.97,473.53 267.99,475.00 266.12,475.33 264.33,474.53 262.65,472.60"/>
    </edge>
    <edge id=":496860304_1" function="internal">
        <lane id=":496860304_1_0" index="0" disallow="pedestrian bicycle tram rail_urban rail rail_electric rail_fast ship" speed="4.08" length="2.64" shape="269.97,473.53 269.34,475.29 269.47,476.05"/>
    </edge>
    <edge id=":496860304_4" function="internal">
        <lane id=":496860304_4_0" index="0" disallow="pedestrian bicycle tram rail_urban rail rail_electric rail_fast ship" speed="4.08" length="3.41" shape="269.47,476.05 269.54,476.43 270.57,476.95 272.43,476.86"/>
    </edge>
    <edge id=":496860304_2" function="internal">
        <lane id=":496860304_2_0" index="0" disallow="pedestrian bicycle tram rail_urban rail rail_electric rail_fast ship" speed="22.22" length="11.75" shape="262.56,483.21 265.69,481.41 267.89,480.05 269.90,478.68 272.43,476.86"/>
    </edge>
    <edge id=":496860304_3" function="internal">
        <lane id=":496860304_3_0" index="0" disallow="tram rail_urban rail rail_electric rail_fast ship" speed="6.44" length="5.47" shape="260.98,480.43 262.94,478.88 263.88,477.06 263.83,476.14"/>
    </edge>
    <edge id=":496860304_5" function="internal">
        <lane id=":496860304_5_0" index="0" disallow="tram rail_urban rail rail_electric rail_fast ship" speed="6.44" length="3.80" shape="263.83,476.14 263.78,474.97 262.65,472.60"/>
    </edge>
    <edge id=":5177160827_0" function="internal">
        <lane id=":5177160827_0_0" index="0" disallow="tram rail_urban rail rail_electric rail_fast ship" speed="20.83" length="38.32" shape="264.68,624.21 260.34,613.70 257.61,606.40 255.37,598.93 252.51,587.92"/>
        <lane id=":5177160827_0_1" index="1" disallow="tram rail_urban rail rail_electric rail_fast ship" speed="20.83" length="38.32" shape="261.72,625.44 257.38,614.93 254.64,607.64 252.39,600.18 249.53,589.17"/>
        <lane id=":5177160827_0_2" index="2" disallow="tram rail_urban rail rail_electric rail_fast ship" speed="20.83" length="38.32" shape="258.77,626.67 254.42,616.16 251.67,608.87 249.41,601.42 246.55,590.42"/>
        <lane id=":5177160827_0_3" index="3" disallow="tram rail_urban rail rail_electric rail_fast ship" speed="20.83" length="38.32" shape="255.82,627.90 251.46,617.40 248.70,610.11 246.43,602.67 243.56,591.67"/>
    </edge>
    <edge id=":5177160827_4" function="internal">
        <lane id=":5177160827_4_0" index="0" disallow="pedestrian tram rail_urban rail rail_electric rail_fast ship" speed="19.44" length="38.13" shape="252.86,629.13 240.30,593.13"/>
    </edge>
    <edge id=":5259103237_0" function="internal">
        <lane id=":5259103237_0_0" index="0" disallow="pedestrian bicycle tram rail_urban rail rail_electric rail_fast ship" speed="19.44" length="2.95" shape="596.47,630.48 599.17,632.28"/>
        <lane id=":5259103237_0_1" index="1" disallow="pedestrian bicycle tram rail_urban rail rail_electric rail_fast ship" speed="19.44" length="2.95" shape="598.30,627.86 600.83,629.55"/>
        <lane id=":5259103237_0_2" index="2" disallow="pedestrian bicycle tram rail_urban rail rail_electric rail_fast ship" speed="19.44" length="2.95" shape="600.12,625.23 602.49,626.81"/>
        <lane id=":5259103237_0_3" index="3" disallow="pedestrian bicycle tram rail_urban rail rail_electric rail_fast ship" speed="19.44" length="2.95" shape="601.95,622.60 604.15,624.08"/>
    </edge>
    <edge id=":5259103237_4" function="internal">
        <lane id=":5259103237_4_0" index="0" disallow="pedestrian bicycle tram rail_urban rail rail_electric rail_fast ship" speed="20.83" length="3.75" shape="589.31,640.77 590.22,641.56 590.85,642.10 591.51,642.58 592.53,643.23"/>
        <lane id=":5259103237_4_1" index="1" disallow="pedestrian bicycle tram rail_urban rail rail_electric rail_fast ship" speed="20.83" length="3.75" shape="591.15,638.13 592.01,638.89 592.60,639.40 593.23,639.88 594.19,640.49"/>
        <lane id=":5259103237_4_2" index="2" disallow="pedestrian bicycle tram rail_urban rail rail_electric rail_fast ship" speed="20.83" length="3.75" shape="592.99,635.49 593.80,636.21 594.35,636.71 594.94,637.17 595.85,637.75"/>
        <lane id=":5259103237_4_3" index="3" disallow="pedestrian bicycle tram rail_urban rail rail_electric rail_fast ship" speed="20.83" length="3.75" shape="594.82,632.85 595.59,633.54 596.11,634.02 596.65,634.46 597.51,635.02"/>
    </edge>
    <edge id=":5259103267_0" function="internal">
        <lane id=":5259103267_0_0" index="0" disallow="pedestrian bicycle tram rail_urban rail rail_electric rail_fast ship" speed="22.22" length="3.24" shape="258.79,410.30 259.52,409.68 260.04,409.28 260.58,408.91 261.40,408.40"/>
    </edge>
    <edge id=":5259103267_1" function="internal">
        <lane id=":5259103267_1_0" index="0" disallow="pedestrian tram rail_urban rail rail_electric rail_fast ship" speed="22.22" length="3.31" shape="256.71,407.86 259.27,405.76"/>
    </edge>
    <edge id=":5950326891_0" function="internal">
        <lane id=":5950326891_0_0" index="0" disallow="tram rail_urban rail rail_electric rail_fast ship" speed="12.85" length="13.14" shape="218.82,515.81 219.40,512.66 221.45,511.14 224.24,509.80 227.02,507.23"/>
        <lane id=":5950326891_0_1" index="1" disallow="tram rail_urban rail rail_electric rail_fast ship" speed="13.35" length="13.14" shape="215.63,516.10 216.16,512.58 218.16,510.71 220.95,509.06 223.86,506.17"/>
    </edge>
    <edge id=":6026235603_0" function="internal">
        <lane id=":6026235603_0_0" index="0" disallow="pedestrian bicycle tram rail_urban rail rail_electric rail_fast ship" speed="19.44" length="1.45" shape="244.55,375.48 243.18,374.82"/>
        <lane id=":6026235603_0_1" index="1" disallow="pedestrian bicycle tram rail_urban rail rail_electric rail_fast ship" speed="19.44" length="1.45" shape="243.13,378.35 241.79,377.70"/>
        <lane id=":6026235603_0_2" index="2" disallow="pedestrian bicycle tram rail_urban rail rail_electric rail_fast ship" speed="19.44" length="1.45" shape="241.71,381.21 240.40,380.58"/>
        <lane id=":6026235603_0_3" index="3" disallow="pedestrian bicycle tram rail_urban rail rail_electric rail_fast ship" speed="19.44" length="1.45" shape="240.29,384.08 239.01,383.47"/>
        <lane id=":6026235603_0_4" index="4" disallow="pedestrian bicycle tram rail_urban rail rail_electric rail_fast ship" speed="19.44" length="1.45" shape="238.87,386.95 237.62,386.35"/>
    </edge>
    <edge id=":6026235603_5" function="internal">
        <lane id=":6026235603_5_0" index="0" disallow="pedestrian bicycle tram rail_urban rail rail_electric rail_fast ship" speed="6.86" length="2.24" shape="246.24,373.35 245.87,372.81 245.56,372.48 245.17,372.23 244.58,371.94"/>
    </edge>
    <edge id=":6026235604_0" function="internal">
        <lane id=":6026235604_0_0" index="0" disallow="pedestrian bicycle tram rail_urban rail rail_electric rail_fast ship" speed="5.88" length="1.14" shape="326.16,410.54 325.85,410.44 325.62,410.46 325.39,410.53 325.05,410.57"/>
    </edge>
    <edge id=":6026235604_1" function="internal">
        <lane id=":6026235604_1_0" index="0" disallow="pedestrian bicycle tram rail_urban rail rail_electric rail_fast ship" speed="19.44" length="88.68" shape="324.79,413.43 244.73,375.57"/>
        <lane id=":6026235604_1_1" index="1" disallow="pedestrian bicycle tram rail_urban rail rail_electric rail_fast ship" speed="19.44" length="88.68" shape="323.42,416.32 243.31,378.43"/>
        <lane id=":6026235604_1_2" index="2" disallow="pedestrian bicycle tram rail_urban rail rail_electric rail_fast ship" speed="19.44" length="88.68" shape="322.06,419.22 241.89,381.30"/>
        <lane id=":6026235604_1_3" index="3" disallow="pedestrian bicycle tram rail_urban rail rail_electric rail_fast ship" speed="19.44" length="88.68" shape="320.69,422.11 240.47,384.17"/>
        <lane id=":6026235604_1_4" index="4" disallow="pedestrian bicycle tram rail_urban rail rail_electric rail_fast ship" speed="19.44" length="88.68" shape="319.32,425.00 239.05,387.04"/>
    </edge>
    <edge id=":6185002347_0" function="internal">
        <lane id=":6185002347_0_0" index="0" disallow="pedestrian bicycle tram rail_urban rail rail_electric rail_fast ship" speed="19.44" length="30.99" shape="184.32,341.86 157.06,328.01"/>
        <lane id=":6185002347_0_1" index="1" disallow="pedestrian bicycle tram rail_urban rail rail_electric rail_fast ship" speed="19.44" length="30.99" shape="182.87,344.71 155.46,330.79"/>
        <lane id=":6185002347_0_2" index="2" disallow="pedestrian bicycle tram rail_urban rail rail_electric rail_fast ship" speed="19.44" length="30.99" shape="181.42,347.56 153.87,333.56"/>
        <lane id=":6185002347_0_3" index="3" disallow="pedestrian bicycle tram rail_urban rail rail_electric rail_fast ship" speed="19.44" length="30.99" shape="179.98,350.42 152.27,336.34"/>
        <lane id=":6185002347_0_4" index="4" disallow="pedestrian bicycle tram rail_urban rail rail_electric rail_fast ship" speed="19.44" length="30.99" shape="178.53,353.27 150.68,339.11"/>
        <lane id=":6185002347_0_5" index="5" disallow="pedestrian bicycle tram rail_urban rail rail_electric rail_fast ship" speed="19.44" length="30.99" shape="177.08,356.12 149.08,341.89"/>
    </edge>
    <edge id=":6185050268_0" function="internal">
        <lane id=":6185050268_0_0" index="0" disallow="pedestrian bicycle tram rail_urban rail rail_electric rail_fast ship" speed="20.83" length="2.73" shape="473.83,500.00 471.58,498.46"/>
    </edge>
    <edge id=":6185050268_1" function="internal">
        <lane id=":6185050268_1_0" index="0" disallow="pedestrian bicycle tram rail_urban rail rail_electric rail_fast ship" speed="19.44" length="2.99" shape="472.04,502.67 469.71,501.05"/>
        <lane id=":6185050268_1_1" index="1" disallow="pedestrian bicycle tram rail_urban rail rail_electric rail_fast ship" speed="19.44" length="2.99" shape="470.26,505.33 467.84,503.65"/>
        <lane id=":6185050268_1_2" index="2" disallow="pedestrian bicycle tram rail_urban rail rail_electric rail_fast ship" speed="19.44" length="2.99" shape="468.47,507.98 465.98,506.25"/>
        <lane id=":6185050268_1_3" index="3" disallow="pedestrian bicycle tram rail_urban rail rail_electric rail_fast ship" speed="19.44" length="2.99" shape="466.69,510.64 464.11,508.85"/>
    </edge>
    <edge id=":6185050288_0" function="internal">
        <lane id=":6185050288_0_0" index="0" disallow="pedestrian tram rail_urban rail rail_electric rail_fast ship" speed="20.83" length="0.10" shape="234.57,581.60 234.57,581.60"/>
    </edge>
    <edge id=":6359513151_0" function="internal">
        <lane id=":6359513151_0_0" index="0" disallow="pedestrian bicycle tram rail_urban rail rail_electric rail_fast ship" speed="22.22" length="2.81" shape="297.08,465.81 299.52,466.88"/>
        <lane id=":6359513151_0_1" index="1" disallow="pedestrian bicycle tram rail_urban rail rail_electric rail_fast ship" speed="22.22" length="2.81" shape="298.33,462.86 300.85,463.98"/>
        <lane id=":6359513151_0_2" index="2" disallow="pedestrian bicycle tram rail_urban rail rail_electric rail_fast ship" speed="22.22" length="2.81" shape="299.57,459.91 302.19,461.07"/>
        <lane id=":6359513151_0_3" index="3" disallow="pedestrian bicycle tram rail_urban rail rail_electric rail_fast ship" speed="22.22" length="2.81" shape="300.82,456.97 303.52,458.16"/>
    </edge>
    <edge id=":6359513151_4" function="internal">
        <lane id=":6359513151_4_0" index="0" disallow="pedestrian bicycle tram rail_urban rail rail_electric rail_fast ship" speed="5.26" length="2.25" shape="296.54,468.39 296.81,468.95 297.15,469.29 297.59,469.53 298.18,469.79"/>
    </edge>
    <edge id=":6359513154_0" function="internal">
        <lane id=":6359513154_0_0" index="0" disallow="pedestrian bicycle tram rail_urban rail rail_electric rail_fast ship" speed="12.23" length="12.41" shape="259.79,452.86 263.16,454.78 265.61,456.51 267.94,457.49 270.92,457.18"/>
    </edge>
    <edge id=":6359513154_1" function="internal">
        <lane id=":6359513154_1_0" index="0" disallow="pedestrian bicycle tram rail_urban rail rail_electric rail_fast ship" speed="22.22" length="3.00" shape="261.09,449.94 263.83,451.16"/>
        <lane id=":6359513154_1_1" index="1" disallow="pedestrian bicycle tram rail_urban rail rail_electric rail_fast ship" speed="22.22" length="3.00" shape="262.39,447.02 265.13,448.24"/>
        <lane id=":6359513154_1_2" index="2" disallow="pedestrian bicycle tram rail_urban rail rail_electric rail_fast ship" speed="22.22" length="3.00" shape="263.70,444.09 266.43,445.32"/>
        <lane id=":6359513154_1_3" index="3" disallow="pedestrian bicycle tram rail_urban rail rail_electric rail_fast ship" speed="22.22" length="3.00" shape="265.00,441.17 267.74,442.39"/>
    </edge>
    <edge id=":654642353-AddedOffRampNode_0" function="internal">
        <lane id=":654642353-AddedOffRampNode_0_0" index="0" disallow="pedestrian tram rail_urban rail rail_electric rail_fast ship" speed="22.22" length="8.40" shape="201.53,489.62 202.36,487.25 203.66,485.87 204.96,484.50 205.79,482.13"/>
        <lane id=":654642353-AddedOffRampNode_0_1" index="1" disallow="pedestrian tram rail_urban rail rail_electric rail_fast ship" speed="22.22" length="8.40" shape="201.53,489.62 202.62,481.69"/>
    </edge>
    <edge id=":683271116-AddedOffRampNode_0" function="internal">
        <lane id=":683271116-AddedOffRampNode_0_0" index="0" disallow="pedestrian bicycle tram rail_urban rail rail_electric rail_fast ship" speed="22.22" length="8.15" shape="176.49,411.66 178.48,413.17 179.39,414.82 180.30,416.47 182.31,417.94"/>
        <lane id=":683271116-AddedOffRampNode_0_1" index="1" disallow="pedestrian bicycle tram rail_urban rail rail_electric rail_fast ship" speed="22.22" length="8.15" shape="176.49,411.66 183.71,415.06"/>
        <lane id=":683271116-AddedOffRampNode_0_2" index="2" disallow="pedestrian bicycle tram rail_urban rail rail_electric rail_fast ship" speed="22.22" length="8.15" shape="177.87,408.77 185.10,412.18"/>
        <lane id=":683271116-AddedOffRampNode_0_3" index="3" disallow="pedestrian bicycle tram rail_urban rail rail_electric rail_fast ship" speed="22.22" length="8.15" shape="179.26,405.89 186.50,409.30"/>
        <lane id=":683271116-AddedOffRampNode_0_4" index="4" disallow="pedestrian bicycle tram rail_urban rail rail_electric rail_fast ship" speed="22.22" length="8.15" shape="180.64,403.00 187.90,406.42"/>
    </edge>
    <edge id=":684713875#1-AddedOnRampNode_0" function="internal">
        <lane id=":684713875#1-AddedOnRampNode_0_0" index="0" disallow="pedestrian bicycle tram rail_urban rail rail_electric rail_fast ship" speed="19.44" length="8.00" shape="558.09,603.78 564.66,608.34"/>
        <lane id=":684713875#1-AddedOnRampNode_0_1" index="1" disallow="pedestrian bicycle tram rail_urban rail rail_electric rail_fast ship" speed="19.44" length="8.00" shape="559.92,601.16 566.49,605.72"/>
        <lane id=":684713875#1-AddedOnRampNode_0_2" index="2" disallow="pedestrian bicycle tram rail_urban rail rail_electric rail_fast ship" speed="19.44" length="8.00" shape="561.75,598.53 568.32,603.09"/>
        <lane id=":684713875#1-AddedOnRampNode_0_3" index="3" disallow="pedestrian bicycle tram rail_urban rail rail_electric rail_fast ship" speed="19.44" length="8.00" shape="563.57,595.90 570.14,600.46"/>
    </edge>
    <edge id=":735260644-AddedOffRampNode_0" function="internal">
        <lane id=":735260644-AddedOffRampNode_0_0" index="0" disallow="pedestrian bicycle tram rail_urban rail rail_electric rail_fast ship" speed="19.44" length="8.13" shape="417.29,462.15 415.43,460.47 414.67,458.74 413.91,457.01 412.05,455.32"/>