<?xml version="1.0" encoding="UTF-8"?>

<!-- generated on 2023-07-19 15:42:31 by Eclipse SUMO netconvert Version 1.17.0
<configuration xmlns:xsi="http://www.w3.org/2001/XMLSchema-instance" xsi:noNamespaceSchemaLocation="http://sumo.dlr.de/xsd/netconvertConfiguration.xsd">

    <input>
        <sumo-net-file value="osm.net.xml.gz"/>
    </input>

    <output>
        <output-file value="osm.net.xml"/>
        <output.street-names value="true"/>
    </output>

    <processing>
        <geometry.min-radius.fix.railways value="false"/>
        <geometry.max-grade.fix value="false"/>
        <offset.disable-normalization value="true"/>
        <lefthand value="1"/>
    </processing>

    <junctions>
        <no-turnarounds value="true"/>
        <junctions.corner-detail value="5"/>
        <junctions.limit-turn-speed value="5.50"/>
        <rectangular-lane-cut value="0"/>
    </junctions>

    <pedestrian>
        <walkingareas value="0"/>
    </pedestrian>

</configuration>
-->

<net version="1.16" junctionCornerDetail="5" lefthand="true" limitTurnSpeed="5.50" xmlns:xsi="http://www.w3.org/2001/XMLSchema-instance" xsi:noNamespaceSchemaLocation="http://sumo.dlr.de/xsd/net_file.xsd">

    <location netOffset="-361980.51,-152322.87" convBoundary="0.00,0.00,455.19,589.18" origBoundary="103.759394,1.377786,103.763484,1.383114" projParameter="+proj=utm +zone=48 +ellps=WGS84 +datum=WGS84 +units=m +no_defs"/>

    <type id="highway.bridleway" priority="1" numLanes="1" speed="2.78" allow="pedestrian" oneway="1" width="2.00"/>
    <type id="highway.bus_guideway" priority="1" numLanes="1" speed="27.78" allow="bus" oneway="1"/>
    <type id="highway.cycleway" priority="1" numLanes="1" speed="5.56" allow="bicycle" oneway="0" width="1.00"/>
    <type id="highway.footway" priority="1" numLanes="1" speed="2.78" allow="pedestrian" oneway="1" width="2.00"/>
    <type id="highway.ford" priority="1" numLanes="1" speed="2.78" allow="army" oneway="0"/>
    <type id="highway.living_street" priority="2" numLanes="1" speed="2.78" disallow="tram rail_urban rail rail_electric rail_fast ship" oneway="0"/>
    <type id="highway.motorway" priority="14" numLanes="2" speed="39.44" allow="private emergency authority army vip passenger hov taxi bus coach delivery truck trailer motorcycle evehicle custom1 custom2" oneway="1"/>
    <type id="highway.motorway_link" priority="9" numLanes="1" speed="22.22" allow="private emergency authority army vip passenger hov taxi bus coach delivery truck trailer motorcycle evehicle custom1 custom2" oneway="1"/>
    <type id="highway.path" priority="1" numLanes="1" speed="5.56" allow="pedestrian bicycle" oneway="0" width="2.00"/>
    <type id="highway.pedestrian" priority="1" numLanes="1" speed="2.78" allow="pedestrian" oneway="1" width="2.00"/>
    <type id="highway.primary" priority="12" numLanes="2" speed="27.78" disallow="tram rail_urban rail rail_electric rail_fast ship" oneway="0"/>
    <type id="highway.primary_link" priority="7" numLanes="1" speed="22.22" disallow="tram rail_urban rail rail_electric rail_fast ship" oneway="0"/>
    <type id="highway.raceway" priority="15" numLanes="2" speed="83.33" allow="vip" oneway="0"/>
    <type id="highway.residential" priority="3" numLanes="1" speed="13.89" disallow="tram rail_urban rail rail_electric rail_fast ship" oneway="0"/>
    <type id="highway.secondary" priority="11" numLanes="1" speed="27.78" disallow="tram rail_urban rail rail_electric rail_fast ship" oneway="0"/>
    <type id="highway.secondary_link" priority="6" numLanes="1" speed="22.22" disallow="tram rail_urban rail rail_electric rail_fast ship" oneway="0"/>
    <type id="highway.service" priority="1" numLanes="1" speed="5.56" allow="pedestrian delivery bicycle" oneway="0"/>
    <type id="highway.stairs" priority="1" numLanes="1" speed="1.39" allow="pedestrian" oneway="1" width="2.00"/>
    <type id="highway.step" priority="1" numLanes="1" speed="1.39" allow="pedestrian" oneway="1" width="2.00"/>
    <type id="highway.steps" priority="1" numLanes="1" speed="1.39" allow="pedestrian" oneway="1" width="2.00"/>
    <type id="highway.tertiary" priority="10" numLanes="1" speed="22.22" disallow="tram rail_urban rail rail_electric rail_fast ship" oneway="0"/>
    <type id="highway.tertiary_link" priority="5" numLanes="1" speed="22.22" disallow="tram rail_urban rail rail_electric rail_fast ship" oneway="0"/>
    <type id="highway.track" priority="1" numLanes="1" speed="5.56" allow="pedestrian motorcycle moped bicycle" oneway="0"/>
    <type id="highway.trunk" priority="13" numLanes="2" speed="27.78" disallow="pedestrian bicycle tram rail_urban rail rail_electric rail_fast ship" oneway="0"/>
    <type id="highway.trunk_link" priority="8" numLanes="1" speed="22.22" disallow="pedestrian bicycle tram rail_urban rail rail_electric rail_fast ship" oneway="0"/>
    <type id="highway.unclassified" priority="4" numLanes="1" speed="13.89" disallow="tram rail_urban rail rail_electric rail_fast ship" oneway="0"/>
    <type id="highway.unsurfaced" priority="1" numLanes="1" speed="8.33" disallow="tram rail_urban rail rail_electric rail_fast ship" oneway="0"/>
    <type id="railway.highspeed" priority="21" numLanes="1" speed="69.44" allow="rail_fast" oneway="1"/>
    <type id="railway.light_rail" priority="19" numLanes="1" speed="27.78" allow="rail_urban" oneway="1"/>
    <type id="railway.preserved" priority="16" numLanes="1" speed="27.78" allow="rail" oneway="1"/>
    <type id="railway.rail" priority="20" numLanes="1" speed="44.44" allow="rail" oneway="1"/>
    <type id="railway.subway" priority="18" numLanes="1" speed="27.78" allow="rail_urban" oneway="1"/>
    <type id="railway.tram" priority="17" numLanes="1" speed="13.89" allow="tram" oneway="1"/>

    <edge id=":1924043630_0" function="internal">
        <lane id=":1924043630_0_0" index="0" allow="bus bicycle" speed="3.65" length="4.67" shape="389.77,301.31 391.19,301.10 391.90,300.54 391.88,299.65 391.13,298.41"/>
    </edge>
    <edge id=":236676383_0" function="internal">
        <lane id=":236676383_0_0" index="0" allow="bus bicycle" speed="3.65" length="4.67" shape="454.52,318.27 455.95,318.05 456.64,317.49 456.61,316.59 455.86,315.37"/>
    </edge>
    <edge id=":3599738509_0" function="internal">
        <lane id=":3599738509_0_0" index="0" disallow="pedestrian bicycle tram rail_urban rail rail_electric rail_fast ship" speed="16.67" length="15.14" shape="217.30,140.38 215.03,144.25 213.16,146.70 211.28,149.15 209.01,153.02"/>
        <lane id=":3599738509_0_1" index="1" disallow="pedestrian bicycle tram rail_urban rail rail_electric rail_fast ship" speed="16.67" length="15.14" shape="220.14,141.84 217.88,145.71 216.00,148.16 214.13,150.62 211.86,154.48"/>
        <lane id=":3599738509_0_2" index="2" disallow="pedestrian bicycle tram rail_urban rail rail_electric rail_fast ship" speed="16.67" length="15.14" shape="222.99,143.30 220.73,147.17 218.85,149.62 216.97,152.08 214.71,155.94"/>
        <lane id=":3599738509_0_3" index="3" disallow="pedestrian bicycle tram rail_urban rail rail_electric rail_fast ship" speed="16.67" length="15.14" shape="225.84,144.76 223.57,148.63 221.70,151.08 219.82,153.54 217.56,157.40"/>
        <lane id=":3599738509_0_4" index="4" disallow="pedestrian bicycle tram rail_urban rail rail_electric rail_fast ship" speed="16.67" length="15.14" shape="225.84,144.76 224.02,148.86 223.12,151.81 222.22,154.77 220.40,158.86"/>
    </edge>
    <edge id=":3599738509_5" function="internal">
        <lane id=":3599738509_5_0" index="0" allow="private emergency authority army vip passenger hov taxi coach delivery truck trailer motorcycle moped evehicle custom1 custom2" speed="11.26" length="15.57" shape="225.84,144.76 224.76,147.98 224.66,151.53 225.54,155.43 227.39,159.67"/>
    </edge>
    <edge id=":3599738510_0" function="internal">
        <lane id=":3599738510_0_0" index="0" disallow="pedestrian bicycle tram rail_urban rail rail_electric rail_fast ship" speed="16.67" length="8.21" shape="254.70,172.51 258.16,165.04"/>
        <lane id=":3599738510_0_1" index="1" disallow="pedestrian bicycle tram rail_urban rail rail_electric rail_fast ship" speed="16.67" length="8.21" shape="251.80,171.15 255.24,163.73"/>
    </edge>
    <edge id=":3599738510_2" function="internal">
        <lane id=":3599738510_2_0" index="0" allow="private emergency authority army vip passenger hov taxi coach delivery truck trailer motorcycle moped evehicle custom1 custom2" speed="7.91" length="7.58" shape="248.88,167.33 251.21,166.77 253.04,165.99 254.39,164.97 255.24,163.73"/>
    </edge>
    <edge id=":3861157137_0" function="internal">
        <lane id=":3861157137_0_0" index="0" disallow="pedestrian bicycle tram rail_urban rail rail_electric rail_fast ship" speed="15.28" length="4.72" shape="269.48,218.72 268.23,218.10 267.44,217.56 266.74,216.89 265.76,215.89"/>
    </edge>
    <edge id=":3861157137_1" function="internal">
        <lane id=":3861157137_1_0" index="0" disallow="pedestrian tram rail_urban rail rail_electric rail_fast ship" speed="16.67" length="4.87" shape="268.15,221.63 266.82,220.91 265.97,220.30 265.11,219.71 263.75,219.04"/>
        <lane id=":3861157137_1_1" index="1" disallow="pedestrian tram rail_urban rail rail_electric rail_fast ship" speed="16.67" length="4.87" shape="266.82,224.54 265.52,223.84 264.70,223.24 263.86,222.65 262.54,222.00"/>
        <lane id=":3861157137_1_2" index="2" disallow="pedestrian tram rail_urban rail rail_electric rail_fast ship" speed="16.67" length="4.87" shape="265.50,227.45 264.23,226.77 263.42,226.18 262.61,225.60 261.33,224.97"/>
        <lane id=":3861157137_1_3" index="3" disallow="pedestrian tram rail_urban rail rail_electric rail_fast ship" speed="16.67" length="4.87" shape="264.17,230.36 262.93,229.69 262.15,229.11 261.37,228.55 260.11,227.93"/>
        <lane id=":3861157137_1_4" index="4" disallow="pedestrian tram rail_urban rail rail_electric rail_fast ship" speed="16.67" length="4.87" shape="262.84,233.27 261.64,232.62 260.88,232.05 260.12,231.50 258.90,230.89"/>
    </edge>
    <edge id=":3861157141_0" function="internal">
        <lane id=":3861157141_0_0" index="0" disallow="pedestrian bicycle tram rail_urban rail rail_electric rail_fast ship" speed="11.87" length="8.17" shape="250.85,188.90 250.34,186.51 249.93,184.81 249.96,183.16 250.74,180.96"/>
    </edge>
    <edge id=":3861157141_1" function="internal">
        <lane id=":3861157141_1_0" index="0" disallow="pedestrian bicycle tram rail_urban rail rail_electric rail_fast ship" speed="16.67" length="8.16" shape="246.92,188.25 250.74,180.96"/>
        <lane id=":3861157141_1_1" index="1" disallow="pedestrian bicycle tram rail_urban rail rail_electric rail_fast ship" speed="16.67" length="8.16" shape="244.09,186.77 247.84,179.60"/>
    </edge>
    <edge id=":3861157143_0" function="internal">
        <lane id=":3861157143_0_0" index="0" disallow="pedestrian bicycle tram rail_urban rail rail_electric rail_fast ship" speed="15.28" length="8.74" shape="153.07,205.66 155.27,207.03 156.70,208.08 157.97,209.33 159.69,211.27"/>
    </edge>
    <edge id=":3861157143_1" function="internal">
        <lane id=":3861157143_1_0" index="0" disallow="tram rail_urban rail rail_electric rail_fast ship" speed="16.67" length="8.89" shape="153.07,205.66 155.67,206.71 157.70,206.72 159.80,206.60 162.59,207.28"/>
        <lane id=":3861157143_1_1" index="1" disallow="tram rail_urban rail rail_electric rail_fast ship" speed="16.67" length="8.89" shape="154.72,202.92 157.20,203.90 159.15,203.86 161.15,203.70 163.81,204.32"/>
        <lane id=":3861157143_1_2" index="2" disallow="tram rail_urban rail rail_electric rail_fast ship" speed="16.67" length="8.89" shape="156.38,200.19 158.74,201.09 160.59,201.00 162.50,200.79 165.03,201.36"/>
        <lane id=":3861157143_1_3" index="3" disallow="tram rail_urban rail rail_electric rail_fast ship" speed="16.67" length="8.89" shape="158.04,197.45 160.27,198.28 162.03,198.14 163.85,197.89 166.25,198.40"/>
        <lane id=":3861157143_1_4" index="4" disallow="tram rail_urban rail rail_electric rail_fast ship" speed="16.67" length="8.89" shape="159.69,194.71 161.81,195.47 163.48,195.28 165.20,194.98 167.47,195.44"/>
    </edge>
    <edge id=":3861157145_0" function="internal">
        <lane id=":3861157145_0_0" index="0" disallow="pedestrian bicycle tram rail_urban rail rail_electric rail_fast ship" speed="15.28" length="18.23" shape="169.21,226.82 169.43,230.55 169.18,234.50 168.07,239.01 165.72,244.41"/>
    </edge>
    <edge id=":3861157145_1" function="internal">
        <lane id=":3861157145_1_0" index="0" disallow="pedestrian bicycle tram rail_urban rail rail_electric rail_fast ship" speed="16.67" length="18.25" shape="174.40,228.34 165.72,244.41"/>
        <lane id=":3861157145_1_1" index="1" disallow="pedestrian bicycle tram rail_urban rail rail_electric rail_fast ship" speed="16.67" length="18.25" shape="177.22,229.85 168.56,245.89"/>
    </edge>
    <edge id=":3861157150_0" function="internal">
        <lane id=":3861157150_0_0" index="0" allow="bus bicycle" speed="3.65" length="1.22" shape="247.82,235.30 246.63,235.54"/>
    </edge>
    <edge id=":3861157150_5" function="internal">
        <lane id=":3861157150_5_0" index="0" allow="bus bicycle" speed="3.65" length="3.46" shape="246.63,235.54 246.41,235.59 245.74,236.18 245.81,237.07 246.62,238.26"/>
    </edge>
    <edge id=":3861157150_1" function="internal">
        <lane id=":3861157150_1_0" index="0" disallow="pedestrian bicycle tram rail_urban rail rail_electric rail_fast ship" speed="9.54" length="8.39" shape="236.04,243.61 237.78,243.12 239.72,243.05 241.86,243.41 244.20,244.19"/>
    </edge>
    <edge id=":3861157150_2" function="internal">
        <lane id=":3861157150_2_0" index="0" disallow="tram rail_urban rail rail_electric rail_fast ship" speed="16.67" length="9.27" shape="238.30,237.62 240.41,239.02 241.28,240.82 242.14,242.66 244.20,244.19"/>
        <lane id=":3861157150_2_1" index="1" disallow="tram rail_urban rail rail_electric rail_fast ship" speed="16.67" length="9.27" shape="239.35,234.60 241.50,236.02 242.41,237.83 243.30,239.68 245.41,241.22"/>
        <lane id=":3861157150_2_2" index="2" disallow="tram rail_urban rail rail_electric rail_fast ship" speed="16.67" length="9.27" shape="240.40,231.58 242.60,233.01 243.54,234.84 244.47,236.70 246.62,238.26"/>
    </edge>
    <edge id=":3861157154_0" function="internal">
        <lane id=":3861157154_0_0" index="0" disallow="pedestrian bicycle tram rail_urban rail rail_electric rail_fast ship" speed="14.62" length="14.17" shape="180.68,179.08 177.35,179.84 174.31,180.26 171.01,179.96 166.88,178.54"/>
    </edge>
    <edge id=":3861157154_1" function="internal">
        <lane id=":3861157154_1_0" index="0" disallow="tram rail_urban rail rail_electric rail_fast ship" speed="16.67" length="14.26" shape="179.85,184.57 166.88,178.54"/>
        <lane id=":3861157154_1_1" index="1" disallow="tram rail_urban rail rail_electric rail_fast ship" speed="16.67" length="14.26" shape="178.51,187.47 165.57,181.46"/>
        <lane id=":3861157154_1_2" index="2" disallow="tram rail_urban rail rail_electric rail_fast ship" speed="16.67" length="14.26" shape="177.16,190.37 164.27,184.38"/>
    </edge>
    <edge id=":4606048079_0" function="internal">
        <lane id=":4606048079_0_0" index="0" disallow="pedestrian bicycle tram rail_urban rail rail_electric rail_fast ship" speed="16.67" length="0.28" shape="137.63,297.73 137.48,298.01"/>
        <lane id=":4606048079_0_1" index="1" disallow="pedestrian bicycle tram rail_urban rail rail_electric rail_fast ship" speed="16.67" length="0.28" shape="140.45,299.24 140.33,299.46"/>
    </edge>
    <edge id=":4606048081_0" function="internal">
        <lane id=":4606048081_0_0" index="0" disallow="tram rail_urban rail rail_electric rail_fast ship" speed="16.67" length="8.51" shape="101.77,171.44 103.59,172.93 104.33,174.57 105.04,176.25 106.80,177.87"/>
        <lane id=":4606048081_0_1" index="1" disallow="tram rail_urban rail rail_electric rail_fast ship" speed="16.67" length="8.51" shape="103.22,168.59 105.10,170.11 105.87,171.77 106.62,173.46 108.43,175.11"/>
        <lane id=":4606048081_0_2" index="2" disallow="tram rail_urban rail rail_electric rail_fast ship" speed="16.67" length="8.51" shape="104.68,165.74 106.61,167.29 107.42,168.97 108.21,170.68 110.06,172.36"/>
        <lane id=":4606048081_0_3" index="3" disallow="tram rail_urban rail rail_electric rail_fast ship" speed="16.67" length="8.51" shape="104.68,165.74 111.69,169.61"/>
        <lane id=":4606048081_0_4" index="4" disallow="tram rail_urban rail rail_electric rail_fast ship" speed="16.67" length="8.51" shape="104.68,165.74 107.14,166.44 109.05,166.21 110.94,166.02 113.32,166.86"/>
    </edge>
    <edge id=":4606048692_0" function="internal">
        <lane id=":4606048692_0_0" index="0" disallow="pedestrian bicycle tram rail_urban rail rail_electric rail_fast ship" speed="16.67" length="0.24" shape="93.84,382.90 93.78,383.00"/>
        <lane id=":4606048692_0_1" index="1" disallow="pedestrian bicycle tram rail_urban rail rail_electric rail_fast ship" speed="16.67" length="0.24" shape="96.69,384.37 96.51,384.68"/>
    </edge>
    <edge id=":4737195728_0" function="internal">
        <lane id=":4737195728_0_0" index="0" disallow="pedestrian bicycle tram rail_urban rail rail_electric rail_fast ship" speed="15.28" length="3.85" shape="217.97,257.95 218.51,256.95 218.94,256.29 219.45,255.69 220.23,254.86"/>
    </edge>
    <edge id=":4737195728_1" function="internal">
        <lane id=":4737195728_1_0" index="0" disallow="pedestrian bicycle tram rail_urban rail rail_electric rail_fast ship" speed="16.67" length="8.31" shape="215.13,256.47 219.03,248.81"/>
        <lane id=":4737195728_1_1" index="1" disallow="pedestrian bicycle tram rail_urban rail rail_electric rail_fast ship" speed="16.67" length="8.31" shape="212.30,254.98 216.11,247.49"/>
        <lane id=":4737195728_1_2" index="2" disallow="pedestrian bicycle tram rail_urban rail rail_electric rail_fast ship" speed="16.67" length="8.31" shape="209.46,253.50 213.20,246.17"/>
        <lane id=":4737195728_1_3" index="3" disallow="pedestrian bicycle tram rail_urban rail rail_electric rail_fast ship" speed="16.67" length="8.31" shape="206.63,252.01 210.28,244.85"/>
    </edge>
    <edge id=":4738250070_0" function="internal">
        <lane id=":4738250070_0_0" index="0" disallow="pedestrian bicycle tram rail_urban rail rail_electric rail_fast ship" speed="16.67" length="8.06" shape="250.15,78.52 249.08,80.54 247.99,81.73 246.86,82.90 245.68,84.86"/>
        <lane id=":4738250070_0_1" index="1" disallow="pedestrian bicycle tram rail_urban rail rail_electric rail_fast ship" speed="16.67" length="8.06" shape="253.12,79.70 252.03,81.77 250.93,82.99 249.79,84.20 248.58,86.21"/>
        <lane id=":4738250070_0_2" index="2" disallow="pedestrian bicycle tram rail_urban rail rail_electric rail_fast ship" speed="16.67" length="8.06" shape="256.10,80.88 254.98,83.00 253.87,84.26 252.71,85.50 251.48,87.56"/>
        <lane id=":4738250070_0_3" index="3" disallow="pedestrian bicycle tram rail_urban rail rail_electric rail_fast ship" speed="16.67" length="8.06" shape="256.10,80.88 255.43,83.22 255.32,84.93 255.17,86.62 254.38,88.91"/>
    </edge>
    <edge id=":4857598205_0" function="internal">
        <lane id=":4857598205_0_0" index="0" disallow="pedestrian tram rail_urban rail rail_electric rail_fast ship" speed="16.67" length="8.65" shape="351.24,252.51 349.21,251.03 348.27,249.39 347.32,247.75 345.29,246.27"/>
        <lane id=":4857598205_0_1" index="1" disallow="pedestrian tram rail_urban rail rail_electric rail_fast ship" speed="16.67" length="8.65" shape="349.91,255.42 347.88,253.94 346.94,252.30 345.99,250.66 343.96,249.18"/>
        <lane id=":4857598205_0_2" index="2" disallow="pedestrian tram rail_urban rail rail_electric rail_fast ship" speed="16.67" length="8.65" shape="348.58,258.33 346.55,256.85 345.61,255.21 344.67,253.57 342.63,252.09"/>
        <lane id=":4857598205_0_3" index="3" disallow="pedestrian tram rail_urban rail rail_electric rail_fast ship" speed="16.67" length="8.65" shape="347.25,261.24 345.22,259.76 344.28,258.12 343.34,256.48 341.31,255.00"/>
        <lane id=":4857598205_0_4" index="4" disallow="pedestrian tram rail_urban rail rail_electric rail_fast ship" speed="16.67" length="8.65" shape="347.25,261.24 339.98,257.91"/>
    </edge>
    <edge id=":4857598205_5" function="internal">
        <lane id=":4857598205_5_0" index="0" allow="bus bicycle" speed="16.67" length="8.00" shape="338.65,260.83 345.92,264.15"/>
    </edge>
    <edge id=":5681076545_0" function="internal">
        <lane id=":5681076545_0_0" index="0" disallow="pedestrian bicycle tram rail_urban rail rail_electric rail_fast ship" speed="12.99" length="6.45" shape="202.64,165.44 201.68,167.05 200.77,167.98 199.65,168.72 198.04,169.78"/>
    </edge>
    <edge id=":5681076545_1" function="internal">
        <lane id=":5681076545_1_0" index="0" disallow="pedestrian bicycle tram rail_urban rail rail_electric rail_fast ship" speed="16.67" length="7.11" shape="205.49,166.90 204.33,168.62 203.21,169.59 202.10,170.56 200.93,172.28"/>
        <lane id=":5681076545_1_1" index="1" disallow="pedestrian bicycle tram rail_urban rail rail_electric rail_fast ship" speed="16.67" length="7.11" shape="208.34,168.36 207.17,170.08 206.06,171.05 204.95,172.02 203.78,173.74"/>
        <lane id=":5681076545_1_2" index="2" disallow="pedestrian bicycle tram rail_urban rail rail_electric rail_fast ship" speed="16.67" length="7.11" shape="211.19,169.82 210.02,171.54 208.91,172.51 207.79,173.48 206.63,175.20"/>
        <lane id=":5681076545_1_3" index="3" disallow="pedestrian bicycle tram rail_urban rail rail_electric rail_fast ship" speed="16.67" length="7.11" shape="214.03,171.28 212.87,173.00 211.75,173.97 210.64,174.94 209.48,176.66"/>
    </edge>
    <edge id=":5988124927_0" function="internal">
        <lane id=":5988124927_0_0" index="0" disallow="pedestrian bicycle tram rail_urban rail rail_electric rail_fast ship" speed="16.67" length="8.32" shape="180.73,322.29 182.33,320.34 184.02,319.48 185.71,318.63 187.29,316.67"/>
        <lane id=":5988124927_0_1" index="1" disallow="pedestrian bicycle tram rail_urban rail rail_electric rail_fast ship" speed="16.67" length="8.32" shape="180.73,322.29 184.45,315.19"/>
        <lane id=":5988124927_0_2" index="2" disallow="pedestrian bicycle tram rail_urban rail rail_electric rail_fast ship" speed="16.67" length="8.32" shape="177.90,320.80 181.62,313.71"/>
        <lane id=":5988124927_0_3" index="3" disallow="pedestrian bicycle tram rail_urban rail rail_electric rail_fast ship" speed="16.67" length="8.32" shape="175.07,319.30 178.78,312.24"/>
        <lane id=":5988124927_0_4" index="4" disallow="pedestrian bicycle tram rail_urban rail rail_electric rail_fast ship" speed="16.67" length="8.32" shape="175.07,319.30 175.78,316.90 175.51,315.03 175.25,313.17 175.94,310.76"/>
    </edge>
    <edge id=":5991954539_0" function="internal">
        <lane id=":5991954539_0_0" index="0" disallow="pedestrian tram rail_urban rail rail_electric rail_fast ship" speed="16.67" length="11.32" shape="320.54,234.97 317.67,234.76 315.57,236.22 313.46,237.68 310.60,237.47"/>
        <lane id=":5991954539_0_1" index="1" disallow="pedestrian tram rail_urban rail rail_electric rail_fast ship" speed="16.67" length="11.32" shape="319.21,237.88 316.35,237.67 314.24,239.13 312.14,240.59 309.27,240.38"/>
        <lane id=":5991954539_0_2" index="2" disallow="pedestrian tram rail_urban rail rail_electric rail_fast ship" speed="16.67" length="11.32" shape="317.88,240.79 315.02,240.59 312.91,242.04 310.81,243.50 307.95,243.29"/>
        <lane id=":5991954539_0_3" index="3" disallow="pedestrian tram rail_urban rail rail_electric rail_fast ship" speed="16.67" length="11.32" shape="316.55,243.70 313.69,243.50 311.59,244.95 309.48,246.41 306.62,246.21"/>
        <lane id=":5991954539_0_4" index="4" disallow="pedestrian tram rail_urban rail rail_electric rail_fast ship" speed="16.67" length="11.32" shape="315.22,246.62 312.36,246.41 310.26,247.87 308.15,249.32 305.29,249.12"/>
        <lane id=":5991954539_0_5" index="5" disallow="pedestrian tram rail_urban rail rail_electric rail_fast ship" speed="16.67" length="11.32" shape="315.22,246.62 311.87,246.73 309.59,249.32 307.32,251.91 303.96,252.03"/>
    </edge>
    <edge id=":5991954539_6" function="internal">
        <lane id=":5991954539_6_0" index="0" allow="bus bicycle" speed="3.65" length="4.67" shape="315.22,246.62 313.80,246.84 313.10,247.41 313.14,248.30 313.89,249.53"/>
    </edge>
    <edge id=":6882969730_0" function="internal">
        <lane id=":6882969730_0_0" index="0" allow="bus bicycle" speed="16.67" length="8.13" shape="348.36,278.17 340.96,274.81"/>
    </edge>
    <edge id=":6882969730_1" function="internal">
        <lane id=":6882969730_1_0" index="0" disallow="tram rail_urban rail rail_electric rail_fast ship" speed="16.67" length="8.52" shape="337.13,283.61 339.12,285.02 340.03,286.63 340.93,288.26 342.89,289.74"/>
        <lane id=":6882969730_1_1" index="1" disallow="tram rail_urban rail rail_electric rail_fast ship" speed="16.67" length="8.52" shape="338.41,280.68 340.43,282.10 341.35,283.71 342.27,285.35 344.26,286.84"/>
        <lane id=":6882969730_1_2" index="2" disallow="tram rail_urban rail rail_electric rail_fast ship" speed="16.67" length="8.52" shape="339.69,277.74 341.73,279.18 342.68,280.80 343.61,282.45 345.62,283.95"/>
        <lane id=":6882969730_1_3" index="3" disallow="tram rail_urban rail rail_electric rail_fast ship" speed="16.67" length="8.52" shape="339.69,277.74 346.99,281.06"/>
    </edge>
    <edge id=":6882969731_0" function="internal">
        <lane id=":6882969731_0_0" index="0" disallow="pedestrian tram rail_urban rail rail_electric rail_fast ship" speed="16.67" length="8.56" shape="369.43,264.52 367.41,262.94 366.49,261.25 365.54,259.59 363.48,258.10"/>
        <lane id=":6882969731_0_1" index="1" disallow="pedestrian tram rail_urban rail rail_electric rail_fast ship" speed="16.67" length="8.56" shape="367.97,267.37 365.99,265.81 365.09,264.13 364.18,262.48 362.15,261.01"/>
        <lane id=":6882969731_0_2" index="2" disallow="pedestrian tram rail_urban rail rail_electric rail_fast ship" speed="16.67" length="8.56" shape="366.52,270.22 364.57,268.67 363.70,267.01 362.81,265.38 360.82,263.92"/>
        <lane id=":6882969731_0_3" index="3" disallow="pedestrian tram rail_urban rail rail_electric rail_fast ship" speed="16.67" length="8.56" shape="366.52,270.22 359.49,266.83"/>
    </edge>
    <edge id=":6882969731_4" function="internal">
        <lane id=":6882969731_4_0" index="0" allow="bus bicycle" speed="16.67" length="7.66" shape="358.16,269.74 365.06,273.08"/>
    </edge>
    <edge id=":cluster_3599738519_3599738527_0" function="internal">
        <lane id=":cluster_3599738519_3599738527_0_0" index="0" disallow="pedestrian bicycle tram rail_urban rail rail_electric rail_fast ship" speed="16.67" length="42.19" shape="195.87,182.15 178.62,220.50"/>
        <lane id=":cluster_3599738519_3599738527_0_1" index="1" disallow="pedestrian bicycle tram rail_urban rail rail_electric rail_fast ship" speed="16.67" length="42.19" shape="198.72,183.60 181.35,222.19"/>
    </edge>
    <edge id=":cluster_3599738519_3599738527_2" function="internal">
        <lane id=":cluster_3599738519_3599738527_2_0" index="0" disallow="pedestrian bicycle tram rail_urban rail rail_electric rail_fast ship" speed="11.92" length="4.92" shape="201.58,185.05 199.53,189.51"/>
        <lane id=":cluster_3599738519_3599738527_2_1" index="1" disallow="pedestrian bicycle tram rail_urban rail rail_electric rail_fast ship" speed="11.05" length="4.38" shape="204.43,186.50 202.56,190.46"/>
        <lane id=":cluster_3599738519_3599738527_2_2" index="2" disallow="pedestrian bicycle tram rail_urban rail rail_electric rail_fast ship" speed="10.45" length="4.38" shape="204.43,186.50 202.57,190.47"/>
    </edge>
    <edge id=":cluster_3599738519_3599738527_15" function="internal">
        <lane id=":cluster_3599738519_3599738527_15_0" index="0" disallow="pedestrian bicycle tram rail_urban rail rail_electric rail_fast ship" speed="11.92" length="28.29" shape="199.53,189.51 196.14,196.92 193.45,205.98 193.50,212.23 196.29,215.68"/>
    </edge>
    <edge id=":cluster_3599738519_3599738527_16" function="internal">
        <lane id=":cluster_3599738519_3599738527_16_0" index="0" disallow="pedestrian bicycle tram rail_urban rail rail_electric rail_fast ship" speed="11.05" length="24.00" shape="202.56,190.46 199.46,197.01 196.68,204.90 196.09,210.17 197.70,212.80"/>
    </edge>
    <edge id=":cluster_3599738519_3599738527_17" function="internal">
        <lane id=":cluster_3599738519_3599738527_17_0" index="0" disallow="pedestrian bicycle tram rail_urban rail rail_electric rail_fast ship" speed="10.45" length="20.92" shape="202.57,190.47 200.09,195.76 197.76,202.76 197.43,207.48 199.11,209.93"/>
    </edge>
    <edge id=":cluster_3599738519_3599738527_5" function="internal">
        <lane id=":cluster_3599738519_3599738527_5_0" index="0" disallow="tram rail_urban rail rail_electric rail_fast ship" speed="16.67" length="21.19" shape="206.94,193.95 201.12,191.68 196.87,190.81 192.61,189.96 186.75,187.76"/>
        <lane id=":cluster_3599738519_3599738527_5_1" index="1" disallow="tram rail_urban rail rail_electric rail_fast ship" speed="16.67" length="21.19" shape="205.53,196.82 199.71,194.55 195.46,193.68 191.20,192.83 185.34,190.64"/>