<?xml version="1.0" encoding="UTF-8"?>

<!-- generated on 2023-07-14 12:03:09 by Eclipse SUMO netconvert Version 1.17.0
<configuration xmlns:xsi="http://www.w3.org/2001/XMLSchema-instance" xsi:noNamespaceSchemaLocation="http://sumo.dlr.de/xsd/netconvertConfiguration.xsd">

    <input>
        <sumo-net-file value="osm.net.xml.gz"/>
    </input>

    <output>
        <output-file value="osm.net.xml"/>
        <output.street-names value="true"/>
    </output>

    <processing>
        <geometry.min-radius.fix.railways value="false"/>
        <geometry.max-grade.fix value="false"/>
        <offset.disable-normalization value="true"/>
        <lefthand value="1"/>
    </processing>

    <junctions>
        <no-turnarounds value="true"/>
        <junctions.corner-detail value="5"/>
        <junctions.limit-turn-speed value="5.50"/>
        <rectangular-lane-cut value="0"/>
    </junctions>

    <pedestrian>
        <walkingareas value="0"/>
    </pedestrian>

</configuration>
-->

<net version="1.16" junctionCornerDetail="5" lefthand="true" limitTurnSpeed="5.50" xmlns:xsi="http://www.w3.org/2001/XMLSchema-instance" xsi:noNamespaceSchemaLocation="http://sumo.dlr.de/xsd/net_file.xsd">

    <location netOffset="-362412.68,-157728.74" convBoundary="0.00,0.00,1144.33,1044.82" origBoundary="103.763253,1.426684,103.773536,1.436137" projParameter="+proj=utm +zone=48 +ellps=WGS84 +datum=WGS84 +units=m +no_defs"/>

    <type id="highway.bridleway" priority="1" numLanes="1" speed="2.78" allow="pedestrian" oneway="1" width="2.00"/>
    <type id="highway.bus_guideway" priority="1" numLanes="1" speed="27.78" allow="bus" oneway="1"/>
    <type id="highway.cycleway" priority="1" numLanes="1" speed="5.56" allow="bicycle" oneway="0" width="1.00"/>
    <type id="highway.footway" priority="1" numLanes="1" speed="2.78" allow="pedestrian" oneway="1" width="2.00"/>
    <type id="highway.ford" priority="1" numLanes="1" speed="2.78" allow="army" oneway="0"/>
    <type id="highway.living_street" priority="2" numLanes="1" speed="2.78" disallow="tram rail_urban rail rail_electric rail_fast ship" oneway="0"/>
    <type id="highway.motorway" priority="14" numLanes="2" speed="39.44" allow="private emergency authority army vip passenger hov taxi bus coach delivery truck trailer motorcycle evehicle custom1 custom2" oneway="1"/>
    <type id="highway.motorway_link" priority="9" numLanes="1" speed="22.22" allow="private emergency authority army vip passenger hov taxi bus coach delivery truck trailer motorcycle evehicle custom1 custom2" oneway="1"/>
    <type id="highway.path" priority="1" numLanes="1" speed="5.56" allow="pedestrian bicycle" oneway="0" width="2.00"/>
    <type id="highway.pedestrian" priority="1" numLanes="1" speed="2.78" allow="pedestrian" oneway="1" width="2.00"/>
    <type id="highway.primary" priority="12" numLanes="2" speed="27.78" disallow="tram rail_urban rail rail_electric rail_fast ship" oneway="0"/>
    <type id="highway.primary_link" priority="7" numLanes="1" speed="22.22" disallow="tram rail_urban rail rail_electric rail_fast ship" oneway="0"/>
    <type id="highway.raceway" priority="15" numLanes="2" speed="83.33" allow="vip" oneway="0"/>
    <type id="highway.residential" priority="3" numLanes="1" speed="13.89" disallow="tram rail_urban rail rail_electric rail_fast ship" oneway="0"/>
    <type id="highway.secondary" priority="11" numLanes="1" speed="27.78" disallow="tram rail_urban rail rail_electric rail_fast ship" oneway="0"/>
    <type id="highway.secondary_link" priority="6" numLanes="1" speed="22.22" disallow="tram rail_urban rail rail_electric rail_fast ship" oneway="0"/>
    <type id="highway.service" priority="1" numLanes="1" speed="5.56" allow="pedestrian delivery bicycle" oneway="0"/>
    <type id="highway.stairs" priority="1" numLanes="1" speed="1.39" allow="pedestrian" oneway="1" width="2.00"/>
    <type id="highway.step" priority="1" numLanes="1" speed="1.39" allow="pedestrian" oneway="1" width="2.00"/>
    <type id="highway.steps" priority="1" numLanes="1" speed="1.39" allow="pedestrian" oneway="1" width="2.00"/>
    <type id="highway.tertiary" priority="10" numLanes="1" speed="22.22" disallow="tram rail_urban rail rail_electric rail_fast ship" oneway="0"/>
    <type id="highway.tertiary_link" priority="5" numLanes="1" speed="22.22" disallow="tram rail_urban rail rail_electric rail_fast ship" oneway="0"/>
    <type id="highway.track" priority="1" numLanes="1" speed="5.56" allow="pedestrian motorcycle moped bicycle" oneway="0"/>
    <type id="highway.trunk" priority="13" numLanes="2" speed="27.78" disallow="pedestrian bicycle tram rail_urban rail rail_electric rail_fast ship" oneway="0"/>
    <type id="highway.trunk_link" priority="8" numLanes="1" speed="22.22" disallow="pedestrian bicycle tram rail_urban rail rail_electric rail_fast ship" oneway="0"/>
    <type id="highway.unclassified" priority="4" numLanes="1" speed="13.89" disallow="tram rail_urban rail rail_electric rail_fast ship" oneway="0"/>
    <type id="highway.unsurfaced" priority="1" numLanes="1" speed="8.33" disallow="tram rail_urban rail rail_electric rail_fast ship" oneway="0"/>
    <type id="railway.highspeed" priority="21" numLanes="1" speed="69.44" allow="rail_fast" oneway="1"/>
    <type id="railway.light_rail" priority="19" numLanes="1" speed="27.78" allow="rail_urban" oneway="1"/>
    <type id="railway.preserved" priority="16" numLanes="1" speed="27.78" allow="rail" oneway="1"/>
    <type id="railway.rail" priority="20" numLanes="1" speed="44.44" allow="rail" oneway="1"/>
    <type id="railway.subway" priority="18" numLanes="1" speed="27.78" allow="rail_urban" oneway="1"/>
    <type id="railway.tram" priority="17" numLanes="1" speed="13.89" allow="tram" oneway="1"/>

    <edge id=":1110331455_0" function="internal">
        <lane id=":1110331455_0_0" index="0" disallow="tram rail_urban rail rail_electric rail_fast ship" speed="15.28" length="8.33" shape="1035.89,587.88 1033.43,588.11 1031.73,588.27 1030.04,588.23 1027.61,587.88"/>
    </edge>
    <edge id=":1110331455_1" function="internal">
        <lane id=":1110331455_1_0" index="0" disallow="tram rail_urban rail rail_electric rail_fast ship" speed="16.67" length="8.45" shape="1035.49,591.45 1033.01,591.15 1031.27,591.22 1029.53,591.30 1027.04,591.03"/>
        <lane id=":1110331455_1_1" index="1" disallow="tram rail_urban rail rail_electric rail_fast ship" speed="16.67" length="8.45" shape="1034.89,594.59 1032.41,594.30 1030.68,594.37 1028.96,594.45 1026.47,594.18"/>
        <lane id=":1110331455_1_2" index="2" disallow="tram rail_urban rail rail_electric rail_fast ship" speed="16.67" length="8.45" shape="1034.28,597.73 1031.82,597.44 1030.10,597.51 1028.38,597.59 1025.91,597.33"/>
    </edge>
    <edge id=":1110331464_0" function="internal">
        <lane id=":1110331464_0_0" index="0" disallow="tram rail_urban rail rail_electric rail_fast ship" speed="16.67" length="8.20" shape="980.68,609.53 983.00,610.12 984.49,610.90 985.98,611.69 988.29,612.30"/>
        <lane id=":1110331464_0_1" index="1" disallow="tram rail_urban rail rail_electric rail_fast ship" speed="16.67" length="8.20" shape="980.68,609.53 983.08,609.63 984.74,609.32 986.39,609.02 988.79,609.14"/>
        <lane id=":1110331464_0_2" index="2" disallow="tram rail_urban rail rail_electric rail_fast ship" speed="16.67" length="8.20" shape="981.14,606.37 983.55,606.46 985.21,606.16 986.88,605.86 989.28,605.98"/>
        <lane id=":1110331464_0_3" index="3" disallow="tram rail_urban rail rail_electric rail_fast ship" speed="16.67" length="8.20" shape="981.61,603.20 984.02,603.30 985.69,602.99 987.36,602.69 989.77,602.82"/>
        <lane id=":1110331464_0_4" index="4" disallow="tram rail_urban rail rail_electric rail_fast ship" speed="16.67" length="8.20" shape="982.07,600.03 984.49,600.13 986.17,599.83 987.85,599.53 990.27,599.65"/>
    </edge>
    <edge id=":1110331467_0" function="internal">
        <lane id=":1110331467_0_0" index="0" disallow="tram rail_urban rail rail_electric rail_fast ship" speed="12.50" length="9.10" shape="1054.73,636.78 1055.49,639.12 1055.60,640.84 1055.28,642.60 1054.78,645.08"/>
        <lane id=":1110331467_0_1" index="1" disallow="tram rail_urban rail rail_electric rail_fast ship" speed="12.50" length="9.10" shape="1054.73,636.78 1056.08,639.34 1057.29,641.09 1058.01,642.89 1057.93,645.62"/>
    </edge>
    <edge id=":158015891_0" function="internal">
        <lane id=":158015891_0_0" index="0" allow="private emergency authority army vip passenger hov taxi bus coach delivery truck trailer motorcycle evehicle custom1 custom2" speed="19.45" length="6.47" shape="726.35,161.92 725.76,163.74 725.52,165.03 725.44,166.35 725.28,168.27"/>
        <lane id=":158015891_0_1" index="1" allow="private emergency authority army vip passenger hov taxi bus coach delivery truck trailer motorcycle evehicle custom1 custom2" speed="19.45" length="5.65" shape="729.35,163.03 728.84,164.62 728.65,165.75 728.59,166.91 728.47,168.58"/>
        <lane id=":158015891_0_2" index="2" allow="private emergency authority army vip passenger hov taxi bus coach delivery truck trailer motorcycle evehicle custom1 custom2" speed="19.45" length="4.83" shape="732.35,164.15 731.93,165.50 731.78,166.47 731.75,167.46 731.65,168.89"/>
    </edge>
    <edge id=":158015891_3" function="internal">
        <lane id=":158015891_3_0" index="0" allow="private emergency authority army vip passenger hov taxi bus coach delivery truck trailer motorcycle evehicle custom1 custom2" speed="25.00" length="4.04" shape="735.35,165.26 734.65,166.46 733.84,167.10 733.06,167.75 732.40,168.97"/>
        <lane id=":158015891_3_1" index="1" allow="private emergency authority army vip passenger hov taxi bus coach delivery truck trailer motorcycle evehicle custom1 custom2" speed="25.00" length="4.04" shape="738.35,166.37 737.73,167.35 736.98,167.82 736.25,168.30 735.66,169.29"/>
        <lane id=":158015891_3_2" index="2" allow="private emergency authority army vip passenger hov taxi bus coach delivery truck trailer motorcycle evehicle custom1 custom2" speed="25.00" length="4.04" shape="741.35,167.48 738.92,169.61"/>
    </edge>
    <edge id=":158016537_0" function="internal">
        <lane id=":158016537_0_0" index="0" allow="private emergency authority army vip passenger hov taxi bus coach delivery truck trailer motorcycle evehicle custom1 custom2" speed="13.89" length="7.74" shape="585.88,720.18 585.29,722.51 584.55,724.03 583.87,725.56 583.49,727.90"/>
        <lane id=":158016537_0_1" index="1" allow="private emergency authority army vip passenger hov taxi bus coach delivery truck trailer motorcycle evehicle custom1 custom2" speed="13.89" length="7.74" shape="589.05,720.65 588.47,722.89 587.73,724.35 587.06,725.82 586.69,728.08"/>
        <lane id=":158016537_0_2" index="2" allow="private emergency authority army vip passenger hov taxi bus coach delivery truck trailer motorcycle evehicle custom1 custom2" speed="13.89" length="7.74" shape="592.21,721.13 591.64,723.28 590.92,724.67 590.26,726.08 589.88,728.25"/>
        <lane id=":158016537_0_3" index="3" allow="private emergency authority army vip passenger hov taxi bus coach delivery truck trailer motorcycle evehicle custom1 custom2" speed="13.89" length="7.74" shape="592.21,721.13 592.15,723.28 592.52,724.76 592.95,726.25 593.08,728.42"/>
    </edge>
    <edge id=":2146312320_0" function="internal">
        <lane id=":2146312320_0_0" index="0" disallow="tram rail_urban rail rail_electric rail_fast ship" speed="16.67" length="8.14" shape="441.90,353.21 440.82,351.15 440.43,349.55 440.07,347.95 439.07,345.83"/>
        <lane id=":2146312320_0_1" index="1" disallow="tram rail_urban rail rail_electric rail_fast ship" speed="16.67" length="8.14" shape="439.24,354.99 438.14,352.90 437.74,351.28 437.37,349.65 436.34,347.50"/>
        <lane id=":2146312320_0_2" index="2" disallow="tram rail_urban rail rail_electric rail_fast ship" speed="16.67" length="8.14" shape="436.59,356.78 435.46,354.65 435.05,353.01 434.66,351.35 433.61,349.17"/>
        <lane id=":2146312320_0_3" index="3" disallow="tram rail_urban rail rail_electric rail_fast ship" speed="16.67" length="8.14" shape="436.59,356.78 435.03,354.90 433.68,353.84 432.36,352.77 430.88,350.84"/>
    </edge>
    <edge id=":244372749_0" function="internal">
        <lane id=":244372749_0_0" index="0" disallow="tram rail_urban rail rail_electric rail_fast ship" speed="13.89" length="7.44" shape="454.31,684.27 452.97,682.51 452.02,681.34 451.00,680.23 449.45,678.65"/>
    </edge>
    <edge id=":244372749_1" function="internal">
        <lane id=":244372749_1_0" index="0" disallow="tram rail_urban rail rail_electric rail_fast ship" speed="13.89" length="7.72" shape="444.90,683.15 446.77,684.33 448.47,684.55 450.10,684.84 451.76,686.20"/>
    </edge>
    <edge id=":4606778098_0" function="internal">
        <lane id=":4606778098_0_0" index="0" disallow="tram rail_urban rail rail_electric rail_fast ship" speed="16.67" length="8.26" shape="256.56,171.13 258.41,172.72 259.16,174.40 259.89,176.11 261.70,177.77"/>
        <lane id=":4606778098_0_1" index="1" disallow="tram rail_urban rail rail_electric rail_fast ship" speed="16.67" length="8.26" shape="256.56,171.13 263.34,175.02"/>
        <lane id=":4606778098_0_2" index="2" disallow="tram rail_urban rail rail_electric rail_fast ship" speed="16.67" length="8.26" shape="258.10,168.33 264.98,172.28"/>
        <lane id=":4606778098_0_3" index="3" disallow="tram rail_urban rail rail_electric rail_fast ship" speed="16.67" length="8.26" shape="259.65,165.52 266.63,169.53"/>
        <lane id=":4606778098_0_4" index="4" disallow="tram rail_urban rail rail_electric rail_fast ship" speed="16.67" length="8.26" shape="259.65,165.52 262.08,166.29 263.99,166.10 265.88,165.94 268.27,166.78"/>
    </edge>
    <edge id=":4606850070_0" function="internal">
        <lane id=":4606850070_0_0" index="0" disallow="tram rail_urban rail rail_electric rail_fast ship" speed="13.56" length="14.93" shape="294.50,197.40 298.04,200.23 299.91,203.21 300.91,206.38 301.84,209.81"/>
    </edge>
    <edge id=":4606850070_1" function="internal">
        <lane id=":4606850070_1_0" index="0" disallow="tram rail_urban rail rail_electric rail_fast ship" speed="16.67" length="15.10" shape="296.15,194.65 299.37,197.48 300.67,200.36 301.84,203.42 304.66,206.80"/>
        <lane id=":4606850070_1_1" index="1" disallow="tram rail_urban rail rail_electric rail_fast ship" speed="16.67" length="15.10" shape="297.79,191.90 301.01,194.73 302.32,197.60 303.50,200.64 306.33,204.02"/>
        <lane id=":4606850070_1_2" index="2" disallow="tram rail_urban rail rail_electric rail_fast ship" speed="16.67" length="15.10" shape="299.43,189.16 302.66,191.98 303.98,194.83 305.17,197.87 308.00,201.24"/>
        <lane id=":4606850070_1_3" index="3" disallow="tram rail_urban rail rail_electric rail_fast ship" speed="16.67" length="15.10" shape="301.08,186.41 304.30,189.23 305.64,192.07 306.84,195.10 309.67,198.46"/>
    </edge>
    <edge id=":4606850071_0" function="internal">
        <lane id=":4606850071_0_0" index="0" disallow="tram rail_urban rail rail_electric rail_fast ship" speed="12.52" length="15.72" shape="326.76,234.55 330.97,235.27 334.65,236.65 337.79,238.70 340.40,241.41"/>
    </edge>
    <edge id=":4606850071_1" function="internal">
        <lane id=":4606850071_1_0" index="0" disallow="tram rail_urban rail rail_electric rail_fast ship" speed="16.67" length="15.24" shape="330.31,229.99 340.40,241.41"/>
        <lane id=":4606850071_1_1" index="1" disallow="tram rail_urban rail rail_electric rail_fast ship" speed="16.67" length="15.24" shape="332.85,228.04 342.94,239.46"/>
        <lane id=":4606850071_1_2" index="2" disallow="tram rail_urban rail rail_electric rail_fast ship" speed="16.67" length="15.24" shape="335.39,226.08 345.47,237.51"/>
    </edge>
    <edge id=":4606850079_0" function="internal">
        <lane id=":4606850079_0_0" index="0" disallow="tram rail_urban rail rail_electric rail_fast ship" speed="13.89" length="19.57" shape="302.75,217.43 302.31,221.26 301.08,225.35 298.69,229.83 294.77,234.85"/>
    </edge>
    <edge id=":4606850079_1" function="internal">
        <lane id=":4606850079_1_0" index="0" disallow="tram rail_urban rail rail_electric rail_fast ship" speed="13.89" length="19.57" shape="307.86,220.31 294.77,234.85"/>
        <lane id=":4606850079_1_1" index="1" disallow="tram rail_urban rail rail_electric rail_fast ship" speed="13.89" length="19.57" shape="310.24,222.45 297.15,236.99"/>
    </edge>
    <edge id=":4606850079_3" function="internal">
        <lane id=":4606850079_3_0" index="0" disallow="tram rail_urban rail rail_electric rail_fast ship" speed="13.89" length="14.57" shape="301.91,241.27 305.22,238.21 308.24,236.56 311.30,235.73 314.71,235.15"/>
    </edge>
    <edge id=":4606850079_4" function="internal">
        <lane id=":4606850079_4_0" index="0" disallow="tram rail_urban rail rail_electric rail_fast ship" speed="13.89" length="19.57" shape="301.91,241.27 315.00,226.73"/>
        <lane id=":4606850079_4_1" index="1" disallow="tram rail_urban rail rail_electric rail_fast ship" speed="13.89" length="19.57" shape="299.53,239.13 312.62,224.59"/>
    </edge>
    <edge id=":4606869000_0" function="internal">
        <lane id=":4606869000_0_0" index="0" disallow="tram rail_urban rail rail_electric rail_fast ship" speed="16.67" length="8.50" shape="504.94,467.02 506.52,469.03 507.02,470.88 507.55,472.71 509.21,474.62"/>
        <lane id=":4606869000_0_1" index="1" disallow="tram rail_urban rail rail_electric rail_fast ship" speed="16.67" length="8.50" shape="507.02,464.59 508.56,466.57 509.04,468.40 509.55,470.20 511.17,472.09"/>
        <lane id=":4606869000_0_2" index="2" disallow="tram rail_urban rail rail_electric rail_fast ship" speed="16.67" length="8.50" shape="509.10,462.16 510.61,464.11 511.06,465.92 511.54,467.70 513.13,469.56"/>
        <lane id=":4606869000_0_3" index="3" disallow="tram rail_urban rail rail_electric rail_fast ship" speed="16.67" length="8.50" shape="509.10,462.16 515.08,467.03"/>
        <lane id=":4606869000_0_4" index="4" disallow="tram rail_urban rail rail_electric rail_fast ship" speed="16.67" length="8.50" shape="509.10,462.16 511.21,463.30 513.02,463.39 514.86,463.44 517.04,464.50"/>
    </edge>
    <edge id=":4606873761_0" function="internal">
        <lane id=":4606873761_0_0" index="0" disallow="tram rail_urban rail rail_electric rail_fast ship" speed="8.43" length="5.62" shape="982.83,255.72 981.17,255.50 980.00,255.25 979.01,254.70 977.88,253.54"/>
    </edge>
    <edge id=":4606873761_1" function="internal">
        <lane id=":4606873761_1_0" index="0" disallow="tram rail_urban rail rail_electric rail_fast ship" speed="13.89" length="6.75" shape="975.42,255.59 976.82,256.95 978.03,257.60 979.36,258.09 981.15,259.00"/>
    </edge>
    <edge id=":4606873761_2" function="internal">
        <lane id=":4606873761_2_0" index="0" disallow="tram rail_urban rail rail_electric rail_fast ship" speed="3.65" length="1.44" shape="975.42,255.59 976.81,256.00"/>
    </edge>
    <edge id=":4606873761_3" function="internal">
        <lane id=":4606873761_3_0" index="0" disallow="tram rail_urban rail rail_electric rail_fast ship" speed="3.65" length="3.23" shape="976.81,256.00 977.68,255.79 978.04,254.97 977.88,253.54"/>
    </edge>
    <edge id=":4740503002_0" function="internal">
        <lane id=":4740503002_0_0" index="0" disallow="tram rail_urban rail rail_electric rail_fast ship" speed="15.28" length="8.24" shape="1033.45,619.36 1035.81,619.87 1037.34,620.53 1038.78,621.44 1040.90,622.68"/>
    </edge>
    <edge id=":4740503002_1" function="internal">
        <lane id=":4740503002_1_0" index="0" disallow="tram rail_urban rail rail_electric rail_fast ship" speed="16.67" length="8.37" shape="1033.94,616.20 1036.32,616.82 1037.85,617.62 1039.38,618.42 1041.76,619.05"/>
        <lane id=":4740503002_1_1" index="1" disallow="tram rail_urban rail rail_electric rail_fast ship" speed="16.67" length="8.37" shape="1034.44,613.04 1036.81,613.66 1038.34,614.46 1039.87,615.26 1042.25,615.89"/>
        <lane id=":4740503002_1_2" index="2" disallow="tram rail_urban rail rail_electric rail_fast ship" speed="16.67" length="8.37" shape="1034.93,609.88 1037.31,610.50 1038.84,611.30 1040.37,612.10 1042.75,612.73"/>
        <lane id=":4740503002_1_3" index="3" disallow="tram rail_urban rail rail_electric rail_fast ship" speed="16.67" length="8.37" shape="1035.43,606.71 1037.80,607.34 1039.33,608.14 1040.86,608.94 1043.24,609.57"/>
    </edge>
    <edge id=":5982367293_0" function="internal">
        <lane id=":5982367293_0_0" index="0" allow="private emergency authority army vip passenger hov taxi bus coach delivery truck trailer motorcycle evehicle custom1 custom2" speed="13.89" length="8.20" shape="630.03,375.34 628.70,377.37 627.47,378.56 626.26,379.76 624.97,381.81"/>
        <lane id=":5982367293_0_1" index="1" allow="private emergency authority army vip passenger hov taxi bus coach delivery truck trailer motorcycle evehicle custom1 custom2" speed="13.89" length="8.20" shape="630.03,375.34 629.15,377.59 628.91,379.27 628.68,380.95 627.84,383.22"/>
        <lane id=":5982367293_0_2" index="2" allow="private emergency authority army vip passenger hov taxi bus coach delivery truck trailer motorcycle evehicle custom1 custom2" speed="13.89" length="8.20" shape="632.87,376.80 632.00,379.04 631.77,380.71 631.55,382.38 630.71,384.64"/>
        <lane id=":5982367293_0_3" index="3" allow="private emergency authority army vip passenger hov taxi bus coach delivery truck trailer motorcycle evehicle custom1 custom2" speed="13.89" length="8.20" shape="635.71,378.27 634.85,380.49 634.62,382.15 634.41,383.81 633.59,386.05"/>
    </edge>
    <edge id=":6075267661_0" function="internal">
        <lane id=":6075267661_0_0" index="0" disallow="tram rail_urban rail rail_electric rail_fast ship" speed="3.65" length="4.67" shape="226.05,390.28 226.41,391.68 227.03,392.32 227.92,392.21 229.07,391.34"/>
    </edge>
    <edge id=":6138921534_0" function="internal">
        <lane id=":6138921534_0_0" index="0" disallow="tram rail_urban rail rail_electric rail_fast ship" speed="16.67" length="8.21" shape="857.54,556.64 855.21,555.95 853.71,555.12 852.21,554.30 849.87,553.65"/>
        <lane id=":6138921534_0_1" index="1" disallow="tram rail_urban rail rail_electric rail_fast ship" speed="16.67" length="8.21" shape="857.54,556.64 855.13,556.45 853.44,556.70 851.76,556.97 849.34,556.81"/>
        <lane id=":6138921534_0_2" index="2" disallow="tram rail_urban rail rail_electric rail_fast ship" speed="16.67" length="8.21" shape="856.96,559.78 854.56,559.59 852.88,559.85 851.21,560.12 848.80,559.96"/>
        <lane id=":6138921534_0_3" index="3" disallow="tram rail_urban rail rail_electric rail_fast ship" speed="16.67" length="8.21" shape="856.38,562.93 853.99,562.74 852.33,563.00 850.66,563.27 848.27,563.12"/>
        <lane id=":6138921534_0_4" index="4" disallow="tram rail_urban rail rail_electric rail_fast ship" speed="16.67" length="8.21" shape="855.79,566.08 853.42,565.89 851.77,566.15 850.11,566.42 847.73,566.27"/>
    </edge>
    <edge id=":890376904_0" function="internal">
        <lane id=":890376904_0_0" index="0" allow="private emergency authority army vip passenger hov taxi bus coach delivery truck trailer motorcycle evehicle custom1 custom2" speed="19.45" length="0.29" shape="599.97,625.86 599.91,626.23"/>
        <lane id=":890376904_0_1" index="1" allow="private emergency authority army vip passenger hov taxi bus coach delivery truck trailer motorcycle evehicle custom1 custom2" speed="19.45" length="0.29" shape="603.13,626.42 603.08,626.70"/>
        <lane id=":890376904_0_2" index="2" allow="private emergency authority army vip passenger hov taxi bus coach delivery truck trailer motorcycle evehicle custom1 custom2" speed="19.45" length="0.29" shape="606.28,626.98 606.24,627.18"/>
    </edge>
    <edge id=":890376930_0" function="internal">
        <lane id=":890376930_0_0" index="0" allow="private emergency authority army vip passenger hov taxi bus coach delivery truck trailer motorcycle evehicle custom1 custom2" speed="15.28" length="20.10" shape="746.35,536.12 740.67,534.70 737.07,532.82 733.71,530.32 728.71,527.02"/>
        <lane id=":890376930_0_1" index="1" allow="private emergency authority army vip passenger hov taxi bus coach delivery truck trailer motorcycle evehicle custom1 custom2" speed="15.28" length="21.25" shape="745.82,539.27 739.74,537.76 735.81,535.76 732.20,533.14 727.09,529.78"/>
    </edge>
    <edge id=":890376930_2" function="internal">
        <lane id=":890376930_2_0" index="0" disallow="tram rail_urban rail rail_electric rail_fast ship" speed="16.67" length="20.98" shape="745.82,539.27 725.52,534.06"/>
        <lane id=":890376930_2_1" index="1" disallow="tram rail_urban rail rail_electric rail_fast ship" speed="16.67" length="20.98" shape="745.28,542.43 724.97,537.21"/>
        <lane id=":890376930_2_2" index="2" disallow="tram rail_urban rail rail_electric rail_fast ship" speed="16.67" length="20.98" shape="744.75,545.58 724.42,540.37"/>
        <lane id=":890376930_2_3" index="3" disallow="tram rail_urban rail rail_electric rail_fast ship" speed="16.67" length="20.98" shape="744.21,548.74 723.87,543.52"/>
    </edge>
    <edge id=":890376933_0" function="internal">
        <lane id=":890376933_0_0" index="0" allow="private emergency authority army vip passenger hov taxi bus coach delivery truck trailer motorcycle evehicle custom1 custom2" speed="13.89" length="21.40" shape="696.36,487.62 694.79,481.69 693.87,477.35 693.76,472.98 694.63,466.97"/>
        <lane id=":890376933_0_1" index="1" allow="private emergency authority army vip passenger hov taxi bus coach delivery truck trailer motorcycle evehicle custom1 custom2" speed="13.89" length="21.40" shape="693.11,487.80 691.55,481.75 690.67,477.13 690.60,472.50 691.49,466.37"/>
    </edge>
    <edge id=":890376933_2" function="internal">
        <lane id=":890376933_2_0" index="0" allow="private emergency authority army vip passenger hov taxi bus coach delivery truck trailer motorcycle evehicle custom1 custom2" speed="13.89" length="21.08" shape="689.17,487.46 694.63,466.97"/>
        <lane id=":890376933_2_1" index="1" allow="private emergency authority army vip passenger hov taxi bus coach delivery truck trailer motorcycle evehicle custom1 custom2" speed="13.89" length="21.08" shape="686.09,486.62 691.49,466.37"/>
    </edge>
    <edge id=":890376934_0" function="internal">
        <lane id=":890376934_0_0" index="0" allow="private emergency authority army vip passenger hov taxi bus coach delivery truck trailer motorcycle evehicle custom1 custom2" speed="13.89" length="7.80" shape="714.31,348.05 714.99,345.88 715.85,344.53 716.77,343.19 717.66,341.07"/>
    </edge>
    <edge id=":890376937_0" function="internal">
        <lane id=":890376937_0_0" index="0" allow="private emergency authority army vip passenger hov taxi bus coach delivery truck trailer motorcycle evehicle custom1 custom2" speed="15.28" length="16.81" shape="548.39,458.23 544.71,458.39 540.98,458.35 536.96,457.41 532.37,454.83"/>
    </edge>
    <edge id=":890376937_1" function="internal">
        <lane id=":890376937_1_0" index="0" disallow="tram rail_urban rail rail_electric rail_fast ship" speed="16.67" length="16.48" shape="546.40,463.55 542.38,460.76 539.42,459.14 536.45,457.55 532.37,454.83"/>
        <lane id=":890376937_1_1" index="1" disallow="tram rail_urban rail rail_electric rail_fast ship" speed="16.67" length="16.48" shape="544.46,466.10 540.45,463.32 537.51,461.70 534.54,460.12 530.48,457.41"/>
        <lane id=":890376937_1_2" index="2" disallow="tram rail_urban rail rail_electric rail_fast ship" speed="16.67" length="16.48" shape="542.52,468.64 538.52,465.87 535.59,464.27 532.64,462.69 528.59,459.99"/>
    </edge>
    <edge id=":890376940_0" function="internal">
        <lane id=":890376940_0_0" index="0" allow="private emergency authority army vip passenger hov taxi bus coach delivery truck trailer motorcycle evehicle custom1 custom2" speed="11.53" length="5.96" shape="600.76,431.02 600.03,432.63 599.49,433.76 598.73,434.70 597.37,435.77"/>
    </edge>
    <edge id=":890376940_1" function="internal">
        <lane id=":890376940_1_0" index="0" allow="private emergency authority army vip passenger hov taxi bus coach delivery truck trailer motorcycle evehicle custom1 custom2" speed="13.89" length="4.30" shape="603.63,432.43 602.98,433.79 602.59,434.75 602.31,435.74 601.98,437.22"/>
        <lane id=":890376940_1_1" index="1" allow="private emergency authority army vip passenger hov taxi bus coach delivery truck trailer motorcycle evehicle custom1 custom2" speed="13.89" length="4.30" shape="606.50,433.84 605.95,434.99 605.62,435.80 605.39,436.65 605.11,437.89"/>
        <lane id=":890376940_1_2" index="2" allow="private emergency authority army vip passenger hov taxi bus coach delivery truck trailer motorcycle evehicle custom1 custom2" speed="13.89" length="4.30" shape="609.37,435.26 608.92,436.20 608.65,436.86 608.46,437.55 608.24,438.57"/>
    </edge>
    <edge id=":cluster_244372725_244372733_0" function="internal">
        <lane id=":cluster_244372725_244372733_0_0" index="0" disallow="tram rail_urban rail rail_electric rail_fast ship" speed="16.67" length="25.05" shape="344.40,207.14 339.47,201.40 335.63,197.91 331.42,194.79 325.37,190.17"/>