<?xml version="1.0" encoding="UTF-8"?>

<!-- generated on 2023-07-17 10:41:19 by Eclipse SUMO netconvert Version 1.17.0
<configuration xmlns:xsi="http://www.w3.org/2001/XMLSchema-instance" xsi:noNamespaceSchemaLocation="http://sumo.dlr.de/xsd/netconvertConfiguration.xsd">

    <input>
        <sumo-net-file value="osm.net.xml.gz"/>
    </input>

    <output>
        <output-file value="osm.net.xml"/>
        <output.street-names value="true"/>
    </output>

    <processing>
        <geometry.min-radius.fix.railways value="false"/>
        <geometry.max-grade.fix value="false"/>
        <offset.disable-normalization value="true"/>
        <lefthand value="1"/>
    </processing>

    <junctions>
        <no-turnarounds value="true"/>
        <junctions.corner-detail value="5"/>
        <junctions.limit-turn-speed value="5.50"/>
        <rectangular-lane-cut value="0"/>
    </junctions>

    <pedestrian>
        <walkingareas value="0"/>
    </pedestrian>

</configuration>
-->

<net version="1.16" junctionCornerDetail="5" lefthand="true" limitTurnSpeed="5.50" xmlns:xsi="http://www.w3.org/2001/XMLSchema-instance" xsi:noNamespaceSchemaLocation="http://sumo.dlr.de/xsd/net_file.xsd">

    <location netOffset="-373035.29,-140344.33" convBoundary="0.00,0.00,2041.29,1480.44" origBoundary="103.858797,1.269484,103.877138,1.282883" projParameter="+proj=utm +zone=48 +ellps=WGS84 +datum=WGS84 +units=m +no_defs"/>

    <type id="highway.bridleway" priority="1" numLanes="1" speed="2.78" allow="pedestrian" oneway="1" width="2.00"/>
    <type id="highway.bus_guideway" priority="1" numLanes="1" speed="27.78" allow="bus" oneway="1"/>
    <type id="highway.cycleway" priority="1" numLanes="1" speed="5.56" allow="bicycle" oneway="0" width="1.00"/>
    <type id="highway.footway" priority="1" numLanes="1" speed="2.78" allow="pedestrian" oneway="1" width="2.00"/>
    <type id="highway.ford" priority="1" numLanes="1" speed="2.78" allow="army" oneway="0"/>
    <type id="highway.living_street" priority="2" numLanes="1" speed="2.78" disallow="tram rail_urban rail rail_electric rail_fast ship" oneway="0"/>
    <type id="highway.motorway" priority="14" numLanes="2" speed="39.44" allow="private emergency authority army vip passenger hov taxi bus coach delivery truck trailer motorcycle evehicle custom1 custom2" oneway="1"/>
    <type id="highway.motorway_link" priority="9" numLanes="1" speed="22.22" allow="private emergency authority army vip passenger hov taxi bus coach delivery truck trailer motorcycle evehicle custom1 custom2" oneway="1"/>
    <type id="highway.path" priority="1" numLanes="1" speed="5.56" allow="pedestrian bicycle" oneway="0" width="2.00"/>
    <type id="highway.pedestrian" priority="1" numLanes="1" speed="2.78" allow="pedestrian" oneway="1" width="2.00"/>
    <type id="highway.primary" priority="12" numLanes="2" speed="27.78" disallow="tram rail_urban rail rail_electric rail_fast ship" oneway="0"/>
    <type id="highway.primary_link" priority="7" numLanes="1" speed="22.22" disallow="tram rail_urban rail rail_electric rail_fast ship" oneway="0"/>
    <type id="highway.raceway" priority="15" numLanes="2" speed="83.33" allow="vip" oneway="0"/>
    <type id="highway.residential" priority="3" numLanes="1" speed="13.89" disallow="tram rail_urban rail rail_electric rail_fast ship" oneway="0"/>
    <type id="highway.secondary" priority="11" numLanes="1" speed="27.78" disallow="tram rail_urban rail rail_electric rail_fast ship" oneway="0"/>
    <type id="highway.secondary_link" priority="6" numLanes="1" speed="22.22" disallow="tram rail_urban rail rail_electric rail_fast ship" oneway="0"/>
    <type id="highway.service" priority="1" numLanes="1" speed="5.56" allow="pedestrian delivery bicycle" oneway="0"/>
    <type id="highway.stairs" priority="1" numLanes="1" speed="1.39" allow="pedestrian" oneway="1" width="2.00"/>
    <type id="highway.step" priority="1" numLanes="1" speed="1.39" allow="pedestrian" oneway="1" width="2.00"/>
    <type id="highway.steps" priority="1" numLanes="1" speed="1.39" allow="pedestrian" oneway="1" width="2.00"/>
    <type id="highway.tertiary" priority="10" numLanes="1" speed="22.22" disallow="tram rail_urban rail rail_electric rail_fast ship" oneway="0"/>
    <type id="highway.tertiary_link" priority="5" numLanes="1" speed="22.22" disallow="tram rail_urban rail rail_electric rail_fast ship" oneway="0"/>
    <type id="highway.track" priority="1" numLanes="1" speed="5.56" allow="pedestrian motorcycle moped bicycle" oneway="0"/>
    <type id="highway.trunk" priority="13" numLanes="2" speed="27.78" disallow="pedestrian bicycle tram rail_urban rail rail_electric rail_fast ship" oneway="0"/>
    <type id="highway.trunk_link" priority="8" numLanes="1" speed="22.22" disallow="pedestrian bicycle tram rail_urban rail rail_electric rail_fast ship" oneway="0"/>
    <type id="highway.unclassified" priority="4" numLanes="1" speed="13.89" disallow="tram rail_urban rail rail_electric rail_fast ship" oneway="0"/>
    <type id="highway.unsurfaced" priority="1" numLanes="1" speed="8.33" disallow="tram rail_urban rail rail_electric rail_fast ship" oneway="0"/>
    <type id="railway.highspeed" priority="21" numLanes="1" speed="69.44" allow="rail_fast" oneway="1"/>
    <type id="railway.light_rail" priority="19" numLanes="1" speed="27.78" allow="rail_urban" oneway="1"/>
    <type id="railway.preserved" priority="16" numLanes="1" speed="27.78" allow="rail" oneway="1"/>
    <type id="railway.rail" priority="20" numLanes="1" speed="44.44" allow="rail" oneway="1"/>
    <type id="railway.subway" priority="18" numLanes="1" speed="27.78" allow="rail_urban" oneway="1"/>
    <type id="railway.tram" priority="17" numLanes="1" speed="13.89" allow="tram" oneway="1"/>

    <edge id=":1315917316_0" function="internal">
        <lane id=":1315917316_0_0" index="0" allow="private emergency authority army vip passenger hov taxi bus coach delivery truck trailer motorcycle evehicle custom1 custom2" speed="18.05" length="3.44" shape="1161.40,786.81 1158.51,784.82"/>
        <lane id=":1315917316_0_1" index="1" allow="private emergency authority army vip passenger hov taxi bus coach delivery truck trailer motorcycle evehicle custom1 custom2" speed="18.05" length="3.44" shape="1159.52,789.40 1156.75,787.49"/>
    </edge>
    <edge id=":1315917316_2" function="internal">
        <lane id=":1315917316_2_0" index="0" allow="private emergency authority army vip passenger hov taxi bus coach delivery truck trailer motorcycle evehicle custom1 custom2" speed="22.22" length="2.92" shape="1157.64,791.99 1155.01,790.15"/>
        <lane id=":1315917316_2_1" index="1" allow="private emergency authority army vip passenger hov taxi bus coach delivery truck trailer motorcycle evehicle custom1 custom2" speed="22.22" length="2.92" shape="1155.76,794.59 1153.25,792.83"/>
        <lane id=":1315917316_2_2" index="2" allow="private emergency authority army vip passenger hov taxi bus coach delivery truck trailer motorcycle evehicle custom1 custom2" speed="22.22" length="2.92" shape="1153.88,797.18 1151.50,795.50"/>
        <lane id=":1315917316_2_3" index="3" allow="private emergency authority army vip passenger hov taxi bus coach delivery truck trailer motorcycle evehicle custom1 custom2" speed="22.22" length="2.92" shape="1152.01,799.77 1149.74,798.18"/>
        <lane id=":1315917316_2_4" index="4" allow="private emergency authority army vip passenger hov taxi bus coach delivery truck trailer motorcycle evehicle custom1 custom2" speed="22.22" length="2.92" shape="1150.13,802.36 1147.98,800.85"/>
    </edge>
    <edge id=":1539883493_0" function="internal">
        <lane id=":1539883493_0_0" index="0" allow="private emergency authority army vip passenger hov taxi bus coach delivery truck trailer motorcycle evehicle custom1 custom2" speed="12.80" length="14.42" shape="544.31,320.11 541.93,323.56 539.02,325.14 535.76,325.91 532.33,326.91"/>
    </edge>
    <edge id=":1539883493_1" function="internal">
        <lane id=":1539883493_1_0" index="0" disallow="tram rail_urban rail rail_electric rail_fast ship" speed="13.89" length="14.89" shape="544.31,320.11 542.37,323.64 540.38,325.62 537.91,327.25 534.56,329.74"/>
        <lane id=":1539883493_1_1" index="1" disallow="tram rail_urban rail rail_electric rail_fast ship" speed="13.89" length="14.89" shape="547.24,321.38 545.26,325.10 543.24,327.23 540.73,329.00 537.27,331.64"/>
        <lane id=":1539883493_1_2" index="2" disallow="tram rail_urban rail rail_electric rail_fast ship" speed="13.89" length="14.89" shape="550.18,322.64 548.14,326.56 546.10,328.85 543.55,330.76 539.97,333.54"/>
        <lane id=":1539883493_1_3" index="3" disallow="tram rail_urban rail rail_electric rail_fast ship" speed="13.89" length="14.89" shape="553.12,323.91 551.02,328.02 548.97,330.47 546.38,332.52 542.68,335.44"/>
    </edge>
    <edge id=":1539883576_0" function="internal">
        <lane id=":1539883576_0_0" index="0" disallow="tram rail_urban rail rail_electric rail_fast ship" speed="13.89" length="10.03" shape="544.47,289.69 545.74,291.84 546.38,293.45 546.71,295.16 547.06,297.66"/>
        <lane id=":1539883576_0_1" index="1" disallow="tram rail_urban rail rail_electric rail_fast ship" speed="13.89" length="10.03" shape="547.35,288.25 548.77,290.66 549.47,292.46 549.84,294.39 550.23,297.18"/>
        <lane id=":1539883576_0_2" index="2" disallow="tram rail_urban rail rail_electric rail_fast ship" speed="13.89" length="10.03" shape="550.23,286.82 551.79,289.48 552.57,291.48 552.96,293.61 553.39,296.70"/>
        <lane id=":1539883576_0_3" index="3" disallow="tram rail_urban rail rail_electric rail_fast ship" speed="13.89" length="10.03" shape="550.23,286.82 552.39,289.51 554.22,291.21 555.64,293.06 556.55,296.22"/>
    </edge>
    <edge id=":2082809510_0" function="internal">
        <lane id=":2082809510_0_0" index="0" allow="private emergency authority army vip passenger hov taxi bus coach delivery truck trailer motorcycle evehicle custom1 custom2" speed="13.89" length="27.29" shape="396.49,318.90 403.91,323.22 409.20,326.83 413.52,330.59 418.04,335.37"/>
        <lane id=":2082809510_0_1" index="1" allow="private emergency authority army vip passenger hov taxi bus coach delivery truck trailer motorcycle evehicle custom1 custom2" speed="13.89" length="27.57" shape="396.49,318.90 404.28,322.85 410.26,325.58 415.25,328.46 420.07,332.84"/>
    </edge>
    <edge id=":2082809510_2" function="internal">
        <lane id=":2082809510_2_0" index="0" allow="private emergency authority army vip passenger hov taxi bus coach delivery truck trailer motorcycle evehicle custom1 custom2" speed="13.89" length="27.23" shape="396.49,318.90 403.85,322.51 409.19,324.34 414.58,326.06 422.11,329.33"/>
        <lane id=":2082809510_2_1" index="1" allow="private emergency authority army vip passenger hov taxi bus coach delivery truck trailer motorcycle evehicle custom1 custom2" speed="13.89" length="27.23" shape="398.05,316.11 405.28,319.65 410.53,321.43 415.84,323.11 423.24,326.32"/>
        <lane id=":2082809510_2_2" index="2" allow="private emergency authority army vip passenger hov taxi bus coach delivery truck trailer motorcycle evehicle custom1 custom2" speed="13.89" length="27.23" shape="399.62,313.31 406.72,316.79 411.88,318.53 417.09,320.16 424.36,323.31"/>
    </edge>
    <edge id=":244916483#1-AddedOnRampNode_0" function="internal">
        <lane id=":244916483#1-AddedOnRampNode_0_0" index="0" allow="private emergency authority army vip passenger hov taxi bus coach delivery truck trailer motorcycle evehicle custom1 custom2" speed="22.22" length="8.00" shape="417.04,270.25 411.35,264.63"/>
        <lane id=":244916483#1-AddedOnRampNode_0_1" index="1" allow="private emergency authority army vip passenger hov taxi bus coach delivery truck trailer motorcycle evehicle custom1 custom2" speed="22.22" length="8.00" shape="414.79,272.53 409.10,266.90"/>
    </edge>
    <edge id=":2521115159_0" function="internal">
        <lane id=":2521115159_0_0" index="0" allow="private emergency authority army vip passenger hov taxi bus coach delivery truck trailer motorcycle evehicle custom1 custom2" speed="13.89" length="8.16" shape="322.14,274.86 324.05,276.35 325.14,277.66 326.24,278.95 328.18,280.38"/>
        <lane id=":2521115159_0_1" index="1" allow="private emergency authority army vip passenger hov taxi bus coach delivery truck trailer motorcycle evehicle custom1 custom2" speed="13.89" length="8.16" shape="323.83,272.15 325.72,273.62 326.79,274.92 327.87,276.20 329.80,277.62"/>
        <lane id=":2521115159_0_2" index="2" allow="private emergency authority army vip passenger hov taxi bus coach delivery truck trailer motorcycle evehicle custom1 custom2" speed="13.89" length="8.16" shape="323.83,272.15 325.97,273.18 327.60,273.54 329.24,273.87 331.41,274.85"/>
    </edge>
    <edge id=":2521115175_0" function="internal">
        <lane id=":2521115175_0_0" index="0" allow="private emergency authority army vip passenger hov taxi bus coach delivery truck trailer motorcycle evehicle custom1 custom2" speed="13.89" length="25.29" shape="681.65,511.84 686.31,512.35 692.28,513.84 698.83,516.42 705.21,520.21"/>
    </edge>
    <edge id=":2521115175_1" function="internal">
        <lane id=":2521115175_1_0" index="0" allow="private emergency authority army vip passenger hov taxi bus coach delivery truck trailer motorcycle evehicle custom1 custom2" speed="13.89" length="25.14" shape="683.80,507.07 689.70,510.34 694.76,513.24 699.69,516.34 705.21,520.21"/>
        <lane id=":2521115175_1_1" index="1" allow="private emergency authority army vip passenger hov taxi bus coach delivery truck trailer motorcycle evehicle custom1 custom2" speed="13.89" length="25.14" shape="685.71,504.46 691.60,507.74 696.65,510.65 701.58,513.76 707.10,517.62"/>
    </edge>
    <edge id=":2521115176_0" function="internal">
        <lane id=":2521115176_0_0" index="0" allow="private emergency authority army vip passenger hov taxi bus coach delivery truck trailer motorcycle evehicle custom1 custom2" speed="13.89" length="6.62" shape="638.28,515.39 639.96,514.45 641.25,514.08 642.62,513.95 644.59,513.78"/>
    </edge>
    <edge id=":2521115176_1" function="internal">
        <lane id=":2521115176_1_0" index="0" disallow="tram rail_urban rail rail_electric rail_fast ship" speed="13.89" length="7.23" shape="636.55,512.70 638.45,511.76 639.92,511.46 641.39,511.16 643.29,510.22"/>
        <lane id=":2521115176_1_1" index="1" disallow="tram rail_urban rail rail_electric rail_fast ship" speed="13.89" length="7.23" shape="634.81,510.01 636.72,509.07 638.19,508.77 639.65,508.47 641.55,507.53"/>
        <lane id=":2521115176_1_2" index="2" disallow="tram rail_urban rail rail_electric rail_fast ship" speed="13.89" length="7.23" shape="633.08,507.31 634.99,506.38 636.45,506.08 637.92,505.78 639.82,504.84"/>
        <lane id=":2521115176_1_3" index="3" disallow="tram rail_urban rail rail_electric rail_fast ship" speed="13.89" length="7.23" shape="631.35,504.62 633.25,503.69 634.72,503.39 636.18,503.09 638.08,502.16"/>
    </edge>
    <edge id=":2521115180_0" function="internal">
        <lane id=":2521115180_0_0" index="0" allow="private emergency authority army vip passenger hov taxi bus coach delivery truck trailer motorcycle evehicle custom1 custom2" speed="13.89" length="8.16" shape="943.45,702.97 945.32,704.48 946.36,705.80 947.42,707.11 949.31,708.57"/>
    </edge>
    <edge id=":2521115183_0" function="internal">
        <lane id=":2521115183_0_0" index="0" allow="private emergency authority army vip passenger hov taxi bus coach delivery truck trailer motorcycle evehicle custom1 custom2" speed="22.22" length="3.30" shape="1145.42,832.83 1148.09,834.69"/>
        <lane id=":2521115183_0_1" index="1" allow="private emergency authority army vip passenger hov taxi bus coach delivery truck trailer motorcycle evehicle custom1 custom2" speed="22.22" length="3.30" shape="1147.24,830.20 1149.93,832.07"/>
        <lane id=":2521115183_0_2" index="2" allow="private emergency authority army vip passenger hov taxi bus coach delivery truck trailer motorcycle evehicle custom1 custom2" speed="22.22" length="3.30" shape="1149.06,827.57 1151.77,829.45"/>
        <lane id=":2521115183_0_3" index="3" allow="private emergency authority army vip passenger hov taxi bus coach delivery truck trailer motorcycle evehicle custom1 custom2" speed="22.22" length="3.30" shape="1150.88,824.94 1153.61,826.83"/>
        <lane id=":2521115183_0_4" index="4" allow="private emergency authority army vip passenger hov taxi bus coach delivery truck trailer motorcycle evehicle custom1 custom2" speed="22.22" length="3.30" shape="1152.70,822.30 1155.44,824.22"/>
    </edge>
    <edge id=":2521115183_5" function="internal">
        <lane id=":2521115183_5_0" index="0" allow="private emergency authority army vip passenger hov taxi bus coach delivery truck trailer motorcycle evehicle custom1 custom2" speed="18.05" length="3.22" shape="1143.63,835.43 1146.25,837.31"/>
    </edge>
    <edge id=":2521884271_0" function="internal">
        <lane id=":2521884271_0_0" index="0" allow="private emergency authority army vip passenger hov taxi bus coach delivery truck trailer motorcycle evehicle custom1 custom2" speed="13.89" length="23.16" shape="735.43,506.70 729.03,502.37 724.42,498.20 721.10,494.37 718.59,491.06"/>
    </edge>
    <edge id=":2521884271_1" function="internal">
        <lane id=":2521884271_1_0" index="0" allow="private emergency authority army vip passenger hov taxi bus coach delivery truck trailer motorcycle evehicle custom1 custom2" speed="13.89" length="23.70" shape="733.81,509.46 728.18,505.47 724.90,501.95 721.69,498.32 716.28,493.98"/>
        <lane id=":2521884271_1_1" index="1" allow="private emergency authority army vip passenger hov taxi bus coach delivery truck trailer motorcycle evehicle custom1 custom2" speed="13.89" length="23.70" shape="732.20,512.23 726.51,508.21 723.20,504.67 719.96,501.01 714.49,496.63"/>
        <lane id=":2521884271_1_2" index="2" allow="private emergency authority army vip passenger hov taxi bus coach delivery truck trailer motorcycle evehicle custom1 custom2" speed="13.89" length="23.70" shape="730.59,514.99 724.85,510.94 721.50,507.38 718.22,503.70 712.71,499.29"/>
    </edge>
    <edge id=":2521884273_0" function="internal">
        <lane id=":2521884273_0_0" index="0" allow="private emergency authority army vip passenger hov taxi bus coach delivery truck trailer motorcycle evehicle custom1 custom2" speed="13.89" length="7.35" shape="790.28,540.23 788.58,539.18 787.65,538.10 786.75,536.96 785.15,535.72"/>
        <lane id=":2521884273_0_1" index="1" allow="private emergency authority army vip passenger hov taxi bus coach delivery truck trailer motorcycle evehicle custom1 custom2" speed="13.89" length="7.35" shape="790.28,540.23 788.29,539.59 786.81,539.46 785.37,539.28 783.47,538.45"/>
        <lane id=":2521884273_0_2" index="2" allow="private emergency authority army vip passenger hov taxi bus coach delivery truck trailer motorcycle evehicle custom1 custom2" speed="13.89" length="7.35" shape="788.97,543.15 786.87,542.46 785.32,542.30 783.80,542.06 781.80,541.18"/>
        <lane id=":2521884273_0_3" index="3" allow="private emergency authority army vip passenger hov taxi bus coach delivery truck trailer motorcycle evehicle custom1 custom2" speed="13.89" length="7.35" shape="787.66,546.07 785.45,545.33 783.82,545.13 782.23,544.85 780.13,543.91"/>
    </edge>
    <edge id=":2521884276_0" function="internal">
        <lane id=":2521884276_0_0" index="0" allow="private emergency authority army vip passenger hov taxi bus coach delivery truck trailer motorcycle evehicle custom1 custom2" speed="13.89" length="0.25" shape="1008.89,666.38 1008.65,666.21"/>
        <lane id=":2521884276_0_1" index="1" allow="private emergency authority army vip passenger hov taxi bus coach delivery truck trailer motorcycle evehicle custom1 custom2" speed="13.89" length="0.25" shape="1007.01,668.97 1006.84,668.85"/>
    </edge>
    <edge id=":2596273219_0" function="internal">
        <lane id=":2596273219_0_0" index="0" disallow="tram rail_urban rail rail_electric rail_fast ship" speed="3.65" length="4.67" shape="1324.08,928.93 1325.52,929.00 1326.32,928.59 1326.47,927.71 1325.98,926.35"/>
    </edge>
    <edge id=":265150827-AddedOnRampNode_0" function="internal">
        <lane id=":265150827-AddedOnRampNode_0_0" index="0" allow="private emergency authority army vip passenger hov taxi bus coach delivery truck trailer motorcycle evehicle custom1 custom2" speed="22.22" length="8.00" shape="1225.42,889.01 1231.96,893.61"/>
        <lane id=":265150827-AddedOnRampNode_0_1" index="1" allow="private emergency authority army vip passenger hov taxi bus coach delivery truck trailer motorcycle evehicle custom1 custom2" speed="22.22" length="8.00" shape="1227.26,886.39 1233.80,891.00"/>
        <lane id=":265150827-AddedOnRampNode_0_2" index="2" allow="private emergency authority army vip passenger hov taxi bus coach delivery truck trailer motorcycle evehicle custom1 custom2" speed="22.22" length="8.00" shape="1229.10,883.77 1235.64,888.38"/>
        <lane id=":265150827-AddedOnRampNode_0_3" index="3" allow="private emergency authority army vip passenger hov taxi bus coach delivery truck trailer motorcycle evehicle custom1 custom2" speed="22.22" length="8.00" shape="1230.94,881.15 1237.48,885.76"/>
        <lane id=":265150827-AddedOnRampNode_0_4" index="4" allow="private emergency authority army vip passenger hov taxi bus coach delivery truck trailer motorcycle evehicle custom1 custom2" speed="22.22" length="8.00" shape="1232.78,878.54 1239.32,883.14"/>
    </edge>
    <edge id=":2653101272_0" function="internal">
        <lane id=":2653101272_0_0" index="0" disallow="tram rail_urban rail rail_electric rail_fast ship" speed="13.89" length="9.04" shape="1032.51,715.98 1030.71,713.79 1029.89,711.84 1028.93,710.10 1026.71,708.58"/>
        <lane id=":2653101272_0_1" index="1" disallow="tram rail_urban rail rail_electric rail_fast ship" speed="13.89" length="9.04" shape="1032.51,715.98 1030.61,714.36 1029.22,713.35 1027.70,712.53 1025.42,711.50"/>
    </edge>
    <edge id=":2653101274_0" function="internal">
        <lane id=":2653101274_0_0" index="0" disallow="tram rail_urban rail rail_electric rail_fast ship" speed="7.43" length="8.37" shape="990.78,714.58 989.30,717.04 988.47,719.15 988.28,720.90 988.74,722.30"/>
    </edge>
    <edge id=":2653101281_0" function="internal">
        <lane id=":2653101281_0_0" index="0" disallow="tram rail_urban rail rail_electric rail_fast ship" speed="13.89" length="14.50" shape="1102.49,766.34 1090.58,758.05"/>
    </edge>
    <edge id=":2653101281_1" function="internal">
        <lane id=":2653101281_1_0" index="0" disallow="tram rail_urban rail rail_electric rail_fast ship" speed="8.08" length="4.10" shape="1102.49,766.34 1099.05,764.57 1098.81,764.56"/>
    </edge>
    <edge id=":2653101281_6" function="internal">
        <lane id=":2653101281_6_0" index="0" disallow="tram rail_urban rail rail_electric rail_fast ship" speed="8.08" length="10.17" shape="1098.81,764.56 1095.84,764.34 1092.85,765.63 1090.09,768.44"/>
    </edge>
    <edge id=":2653101281_2" function="internal">
        <lane id=":2653101281_2_0" index="0" disallow="tram rail_urban rail rail_electric rail_fast ship" speed="6.60" length="9.18" shape="1092.67,770.34 1094.45,768.52 1096.37,767.68 1098.43,767.82 1100.63,768.94"/>
    </edge>
    <edge id=":2653101281_3" function="internal">
        <lane id=":2653101281_3_0" index="0" disallow="tram rail_urban rail rail_electric rail_fast ship" speed="7.93" length="14.34" shape="1092.67,770.34 1094.54,766.86 1094.82,763.66 1093.50,760.72 1090.58,758.05"/>
    </edge>
    <edge id=":2653101281_4" function="internal">
        <lane id=":2653101281_4_0" index="0" disallow="tram rail_urban rail rail_electric rail_fast ship" speed="6.42" length="9.04" shape="1088.78,760.70 1090.62,762.38 1091.45,764.23 1091.28,766.25 1090.09,768.44"/>
    </edge>
    <edge id=":2653101281_5" function="internal">
        <lane id=":2653101281_5_0" index="0" disallow="tram rail_urban rail rail_electric rail_fast ship" speed="13.89" length="14.44" shape="1088.78,760.70 1100.63,768.94"/>
    </edge>
    <edge id=":4600842962_0" function="internal">
        <lane id=":4600842962_0_0" index="0" allow="private emergency authority army vip passenger hov taxi bus coach delivery truck trailer motorcycle evehicle custom1 custom2" speed="8.24" length="4.14" shape="716.02,468.73 716.36,467.58 716.81,466.88 717.45,466.29 718.39,465.48"/>
    </edge>
    <edge id=":4600842962_1" function="internal">
        <lane id=":4600842962_1_0" index="0" disallow="tram rail_urban rail rail_electric rail_fast ship" speed="13.89" length="3.54" shape="713.21,465.46 714.15,464.84 714.79,464.39 715.38,463.89 716.22,463.13"/>
        <lane id=":4600842962_1_1" index="1" disallow="tram rail_urban rail rail_electric rail_fast ship" speed="13.89" length="3.54" shape="711.47,462.77 712.28,462.24 712.82,461.86 713.33,461.43 714.05,460.77"/>
    </edge>
    <edge id=":4712021480_0" function="internal">
        <lane id=":4712021480_0_0" index="0" disallow="tram rail_urban rail rail_electric rail_fast ship" speed="13.89" length="0.10" shape="1046.33,727.93 1046.34,727.92"/>
    </edge>
    <edge id=":4712021480_1" function="internal">
        <lane id=":4712021480_1_0" index="0" disallow="tram rail_urban rail rail_electric rail_fast ship" speed="13.89" length="0.37" shape="1044.21,730.39 1044.53,730.57"/>
    </edge>
    <edge id=":5006326688_0" function="internal">
        <lane id=":5006326688_0_0" index="0" allow="private emergency authority army vip passenger hov taxi bus coach delivery truck trailer motorcycle evehicle custom1 custom2" speed="18.05" length="3.40" shape="493.37,330.12 492.50,329.61 491.92,329.24 491.35,328.85 490.53,328.26"/>
    </edge>
    <edge id=":5006326688_1" function="internal">
        <lane id=":5006326688_1_0" index="0" allow="private emergency authority army vip passenger hov taxi bus coach delivery truck trailer motorcycle evehicle custom1 custom2" speed="22.22" length="3.44" shape="491.45,333.19 490.66,332.44 490.11,331.94 489.52,331.48 488.65,330.84"/>
        <lane id=":5006326688_1_1" index="1" allow="private emergency authority army vip passenger hov taxi bus coach delivery truck trailer motorcycle evehicle custom1 custom2" speed="22.22" length="3.44" shape="489.23,335.49 488.54,334.83 488.05,334.40 487.54,333.99 486.77,333.43"/>
    </edge>
    <edge id=":5069323959_0" function="internal">
        <lane id=":5069323959_0_0" index="0" disallow="tram rail_urban rail rail_electric rail_fast ship" speed="13.89" length="8.19" shape="1042.25,818.98 1039.99,819.86 1038.16,819.73 1036.31,819.57 1033.99,820.36"/>
        <lane id=":5069323959_0_1" index="1" disallow="tram rail_urban rail rail_electric rail_fast ship" speed="13.89" length="8.19" shape="1042.25,818.98 1035.62,823.11"/>
    </edge>
    <edge id=":5069323959_2" function="internal">
        <lane id=":5069323959_2_0" index="0" disallow="tram rail_urban rail rail_electric rail_fast ship" speed="13.89" length="8.84" shape="1038.88,828.62 1040.74,826.94 1041.48,825.20 1042.20,823.43 1044.00,821.65"/>
    </edge>
    <edge id=":5171997057_0" function="internal">
        <lane id=":5171997057_0_0" index="0" disallow="tram rail_urban rail rail_electric rail_fast ship" speed="3.65" length="4.67" shape="822.76,955.12 822.23,956.46 822.36,957.34 823.14,957.77 824.58,957.74"/>
    </edge>
    <edge id=":5187405194_0" function="internal">
        <lane id=":5187405194_0_0" index="0" allow="private emergency authority army vip passenger hov taxi bus coach delivery truck trailer motorcycle evehicle custom1 custom2" speed="13.89" length="0.30" shape="993.71,656.04 993.47,655.87"/>
        <lane id=":5187405194_0_1" index="1" allow="private emergency authority army vip passenger hov taxi bus coach delivery truck trailer motorcycle evehicle custom1 custom2" speed="13.89" length="0.30" shape="991.91,658.69 991.66,658.52"/>
    </edge>
    <edge id=":5993700035_0" function="internal">
        <lane id=":5993700035_0_0" index="0" disallow="tram rail_urban rail rail_electric rail_fast ship" speed="13.89" length="8.21" shape="296.89,625.81 298.00,627.92 298.42,629.55 298.84,631.19 299.93,633.32"/>
        <lane id=":5993700035_0_1" index="1" disallow="tram rail_urban rail rail_electric rail_fast ship" speed="13.89" length="8.21" shape="299.55,624.03 300.67,626.15 301.09,627.79 301.51,629.43 302.61,631.57"/>
        <lane id=":5993700035_0_2" index="2" disallow="tram rail_urban rail rail_electric rail_fast ship" speed="13.89" length="8.21" shape="302.21,622.25 303.33,624.38 303.77,626.03 304.19,627.67 305.29,629.82"/>
        <lane id=":5993700035_0_3" index="3" disallow="tram rail_urban rail rail_electric rail_fast ship" speed="13.89" length="8.21" shape="302.21,622.25 303.76,624.11 305.11,625.15 306.45,626.20 307.97,628.08"/>
    </edge>
    <edge id=":5995142278_0" function="internal">
        <lane id=":5995142278_0_0" index="0" allow="private emergency authority army vip passenger hov taxi bus coach delivery truck trailer motorcycle evehicle custom1 custom2" speed="13.89" length="8.18" shape="539.90,405.64 541.74,407.12 542.75,408.44 543.75,409.77 545.55,411.31"/>