<?xml version="1.0" encoding="UTF-8"?>

<!-- generated on 2023-07-17 15:55:52 by Eclipse SUMO netconvert Version 1.17.0
<configuration xmlns:xsi="http://www.w3.org/2001/XMLSchema-instance" xsi:noNamespaceSchemaLocation="http://sumo.dlr.de/xsd/netconvertConfiguration.xsd">

    <input>
        <sumo-net-file value="osm.net.xml.gz"/>
    </input>

    <output>
        <output-file value="osm.net.xml"/>
        <output.street-names value="true"/>
    </output>

    <processing>
        <geometry.min-radius.fix.railways value="false"/>
        <geometry.max-grade.fix value="false"/>
        <offset.disable-normalization value="true"/>
        <lefthand value="1"/>
    </processing>

    <junctions>
        <no-turnarounds value="true"/>
        <junctions.corner-detail value="5"/>
        <junctions.limit-turn-speed value="5.50"/>
        <rectangular-lane-cut value="0"/>
    </junctions>

    <pedestrian>
        <walkingareas value="0"/>
    </pedestrian>

</configuration>
-->

<net version="1.16" junctionCornerDetail="5" lefthand="true" limitTurnSpeed="5.50" xmlns:xsi="http://www.w3.org/2001/XMLSchema-instance" xsi:noNamespaceSchemaLocation="http://sumo.dlr.de/xsd/net_file.xsd">

    <location netOffset="-370462.34,-144152.63" convBoundary="0.00,0.00,341.69,289.37" origBoundary="103.835658,1.303921,103.838729,1.306538" projParameter="+proj=utm +zone=48 +ellps=WGS84 +datum=WGS84 +units=m +no_defs"/>

    <type id="highway.bridleway" priority="1" numLanes="1" speed="2.78" allow="pedestrian" oneway="1" width="2.00"/>
    <type id="highway.bus_guideway" priority="1" numLanes="1" speed="27.78" allow="bus" oneway="1"/>
    <type id="highway.cycleway" priority="1" numLanes="1" speed="5.56" allow="bicycle" oneway="0" width="1.00"/>
    <type id="highway.footway" priority="1" numLanes="1" speed="2.78" allow="pedestrian" oneway="1" width="2.00"/>
    <type id="highway.ford" priority="1" numLanes="1" speed="2.78" allow="army" oneway="0"/>
    <type id="highway.living_street" priority="2" numLanes="1" speed="2.78" disallow="tram rail_urban rail rail_electric rail_fast ship" oneway="0"/>
    <type id="highway.motorway" priority="14" numLanes="2" speed="39.44" allow="private emergency authority army vip passenger hov taxi bus coach delivery truck trailer motorcycle evehicle custom1 custom2" oneway="1"/>
    <type id="highway.motorway_link" priority="9" numLanes="1" speed="22.22" allow="private emergency authority army vip passenger hov taxi bus coach delivery truck trailer motorcycle evehicle custom1 custom2" oneway="1"/>
    <type id="highway.path" priority="1" numLanes="1" speed="5.56" allow="pedestrian bicycle" oneway="0" width="2.00"/>
    <type id="highway.pedestrian" priority="1" numLanes="1" speed="2.78" allow="pedestrian" oneway="1" width="2.00"/>
    <type id="highway.primary" priority="12" numLanes="2" speed="27.78" disallow="tram rail_urban rail rail_electric rail_fast ship" oneway="0"/>
    <type id="highway.primary_link" priority="7" numLanes="1" speed="22.22" disallow="tram rail_urban rail rail_electric rail_fast ship" oneway="0"/>
    <type id="highway.raceway" priority="15" numLanes="2" speed="83.33" allow="vip" oneway="0"/>
    <type id="highway.residential" priority="3" numLanes="1" speed="13.89" disallow="tram rail_urban rail rail_electric rail_fast ship" oneway="0"/>
    <type id="highway.secondary" priority="11" numLanes="1" speed="27.78" disallow="tram rail_urban rail rail_electric rail_fast ship" oneway="0"/>
    <type id="highway.secondary_link" priority="6" numLanes="1" speed="22.22" disallow="tram rail_urban rail rail_electric rail_fast ship" oneway="0"/>
    <type id="highway.service" priority="1" numLanes="1" speed="5.56" allow="pedestrian delivery bicycle" oneway="0"/>
    <type id="highway.stairs" priority="1" numLanes="1" speed="1.39" allow="pedestrian" oneway="1" width="2.00"/>
    <type id="highway.step" priority="1" numLanes="1" speed="1.39" allow="pedestrian" oneway="1" width="2.00"/>
    <type id="highway.steps" priority="1" numLanes="1" speed="1.39" allow="pedestrian" oneway="1" width="2.00"/>
    <type id="highway.tertiary" priority="10" numLanes="1" speed="22.22" disallow="tram rail_urban rail rail_electric rail_fast ship" oneway="0"/>
    <type id="highway.tertiary_link" priority="5" numLanes="1" speed="22.22" disallow="tram rail_urban rail rail_electric rail_fast ship" oneway="0"/>
    <type id="highway.track" priority="1" numLanes="1" speed="5.56" allow="pedestrian motorcycle moped bicycle" oneway="0"/>
    <type id="highway.trunk" priority="13" numLanes="2" speed="27.78" disallow="pedestrian bicycle tram rail_urban rail rail_electric rail_fast ship" oneway="0"/>
    <type id="highway.trunk_link" priority="8" numLanes="1" speed="22.22" disallow="pedestrian bicycle tram rail_urban rail rail_electric rail_fast ship" oneway="0"/>
    <type id="highway.unclassified" priority="4" numLanes="1" speed="13.89" disallow="tram rail_urban rail rail_electric rail_fast ship" oneway="0"/>
    <type id="highway.unsurfaced" priority="1" numLanes="1" speed="8.33" disallow="tram rail_urban rail rail_electric rail_fast ship" oneway="0"/>
    <type id="railway.highspeed" priority="21" numLanes="1" speed="69.44" allow="rail_fast" oneway="1"/>
    <type id="railway.light_rail" priority="19" numLanes="1" speed="27.78" allow="rail_urban" oneway="1"/>
    <type id="railway.preserved" priority="16" numLanes="1" speed="27.78" allow="rail" oneway="1"/>
    <type id="railway.rail" priority="20" numLanes="1" speed="44.44" allow="rail" oneway="1"/>
    <type id="railway.subway" priority="18" numLanes="1" speed="27.78" allow="rail_urban" oneway="1"/>
    <type id="railway.tram" priority="17" numLanes="1" speed="13.89" allow="tram" oneway="1"/>

    <edge id=":10023943942_0" function="internal">
        <lane id=":10023943942_0_0" index="0" disallow="tram rail_urban rail rail_electric rail_fast ship" speed="13.89" length="11.08" shape="217.05,18.30 223.77,9.48"/>
        <lane id=":10023943942_0_1" index="1" disallow="tram rail_urban rail rail_electric rail_fast ship" speed="13.89" length="11.08" shape="214.51,16.35 221.22,7.54"/>
        <lane id=":10023943942_0_2" index="2" disallow="tram rail_urban rail rail_electric rail_fast ship" speed="13.89" length="11.08" shape="211.97,14.41 218.68,5.60"/>
        <lane id=":10023943942_0_3" index="3" disallow="tram rail_urban rail rail_electric rail_fast ship" speed="13.89" length="11.08" shape="209.43,12.46 216.13,3.66"/>
        <lane id=":10023943942_0_4" index="4" disallow="tram rail_urban rail rail_electric rail_fast ship" speed="13.89" length="11.08" shape="206.89,10.52 213.59,1.71"/>
    </edge>
    <edge id=":10023943942_5" function="internal">
        <lane id=":10023943942_5_0" index="0" disallow="tram rail_urban rail rail_electric rail_fast ship" speed="8.94" length="9.23" shape="206.89,10.52 207.68,8.95 207.98,6.94 207.80,4.48 207.15,1.57"/>
    </edge>
    <edge id=":10023943949_0" function="internal">
        <lane id=":10023943949_0_0" index="0" disallow="tram rail_urban rail rail_electric rail_fast ship" speed="13.89" length="10.26" shape="185.71,51.54 192.58,43.92"/>
        <lane id=":10023943949_0_1" index="1" disallow="tram rail_urban rail rail_electric rail_fast ship" speed="13.89" length="10.26" shape="183.34,49.40 190.21,41.78"/>
        <lane id=":10023943949_0_2" index="2" disallow="tram rail_urban rail rail_electric rail_fast ship" speed="13.89" length="10.26" shape="180.96,47.26 187.83,39.64"/>
        <lane id=":10023943949_0_3" index="3" disallow="tram rail_urban rail rail_electric rail_fast ship" speed="13.89" length="10.26" shape="178.58,45.11 185.46,37.49"/>
    </edge>
    <edge id=":10023943949_4" function="internal">
        <lane id=":10023943949_4_0" index="0" disallow="tram rail_urban rail rail_electric rail_fast ship" speed="7.29" length="11.01" shape="178.01,37.54 181.19,39.69 183.89,40.76 186.10,40.74 187.83,39.64"/>
        <lane id=":10023943949_4_1" index="1" disallow="tram rail_urban rail rail_electric rail_fast ship" speed="6.43" length="8.36" shape="178.01,37.54 180.10,38.82 182.03,39.23 183.82,38.79 185.46,37.49"/>
    </edge>
    <edge id=":1275435853_0" function="internal">
        <lane id=":1275435853_0_0" index="0" disallow="tram rail_urban rail rail_electric rail_fast ship" speed="13.89" length="7.22" shape="162.97,166.74 163.91,168.77 164.26,170.32 164.69,171.81 165.87,173.67"/>
        <lane id=":1275435853_0_1" index="1" disallow="tram rail_urban rail rail_electric rail_fast ship" speed="13.89" length="7.22" shape="165.72,165.09 166.58,167.01 166.89,168.48 167.26,169.90 168.36,171.66"/>
        <lane id=":1275435853_0_2" index="2" disallow="tram rail_urban rail rail_electric rail_fast ship" speed="13.89" length="7.22" shape="165.72,165.09 166.96,166.67 168.13,167.48 169.38,168.23 170.85,169.65"/>
    </edge>
    <edge id=":1363273338_0" function="internal">
        <lane id=":1363273338_0_0" index="0" disallow="tram rail_urban rail rail_electric rail_fast ship" speed="13.89" length="8.73" shape="163.94,78.95 164.90,76.74 165.67,75.28 166.65,73.94 168.19,72.09"/>
        <lane id=":1363273338_0_1" index="1" disallow="tram rail_urban rail rail_electric rail_fast ship" speed="13.89" length="8.73" shape="161.24,77.11 162.25,74.82 163.09,73.32 164.13,71.94 165.75,70.03"/>
        <lane id=":1363273338_0_2" index="2" disallow="tram rail_urban rail rail_electric rail_fast ship" speed="13.89" length="8.73" shape="161.24,77.11 161.90,74.36 161.82,72.26 161.96,70.29 163.31,67.96"/>
    </edge>
    <edge id=":1363273338_3" function="internal">
        <lane id=":1363273338_3_0" index="0" disallow="tram rail_urban rail rail_electric rail_fast ship" speed="13.89" length="14.17" shape="150.83,75.06 154.07,73.90 157.06,72.83 160.05,71.11 163.31,67.96"/>
        <lane id=":1363273338_3_1" index="1" disallow="tram rail_urban rail rail_electric rail_fast ship" speed="13.89" length="14.17" shape="150.83,75.06 153.73,73.53 155.93,71.69 158.09,69.24 160.86,65.90"/>
    </edge>
    <edge id=":1363273341_0" function="internal">
        <lane id=":1363273341_0_0" index="0" disallow="tram rail_urban rail rail_electric rail_fast ship" speed="13.89" length="18.46" shape="159.59,133.27 158.24,128.06 157.76,124.39 157.70,120.65 157.59,115.23"/>
        <lane id=":1363273341_0_1" index="1" disallow="tram rail_urban rail rail_electric rail_fast ship" speed="13.89" length="18.46" shape="156.53,134.18 155.13,128.84 154.62,125.09 154.53,121.27 154.41,115.71"/>
    </edge>
    <edge id=":1363273341_2" function="internal">
        <lane id=":1363273341_2_0" index="0" disallow="tram rail_urban rail rail_electric rail_fast ship" speed="13.89" length="18.15" shape="156.53,134.18 154.66,128.52 153.01,124.17 151.65,120.54 150.68,117.01"/>
    </edge>
    <edge id=":1363273346_0" function="internal">
        <lane id=":1363273346_0_0" index="0" disallow="tram rail_urban rail rail_electric rail_fast ship" speed="6.86" length="7.86" shape="131.07,91.75 129.68,93.47 128.97,95.23 128.93,97.03 129.56,98.88"/>
    </edge>
    <edge id=":1363273346_1" function="internal">
        <lane id=":1363273346_1_0" index="0" disallow="tram rail_urban rail rail_electric rail_fast ship" speed="13.89" length="8.48" shape="122.98,92.69 126.72,100.35"/>
        <lane id=":1363273346_1_1" index="1" disallow="tram rail_urban rail rail_electric rail_fast ship" speed="13.89" length="8.48" shape="125.87,91.31 129.56,98.88"/>
    </edge>
    <edge id=":240701532_0" function="internal">
        <lane id=":240701532_0_0" index="0" disallow="tram rail_urban rail rail_electric rail_fast ship" speed="13.89" length="13.07" shape="105.99,63.75 107.90,67.10 109.76,69.06 111.70,70.99 113.83,74.23"/>
        <lane id=":240701532_0_1" index="1" disallow="tram rail_urban rail rail_electric rail_fast ship" speed="13.89" length="13.07" shape="108.93,62.47 110.81,65.77 112.65,67.69 114.57,69.57 116.67,72.76"/>
    </edge>
    <edge id=":240701532_2" function="internal">
        <lane id=":240701532_2_0" index="0" disallow="tram rail_urban rail rail_electric rail_fast ship" speed="13.89" length="12.47" shape="111.86,61.19 113.58,64.60 115.25,66.85 117.16,68.66 119.60,70.75"/>
    </edge>
    <edge id=":240701690_0" function="internal">
        <lane id=":240701690_0_0" index="0" disallow="tram rail_urban rail rail_electric rail_fast ship" speed="6.67" length="9.21" shape="147.54,152.22 149.95,151.32 152.07,151.35 153.90,152.31 155.46,154.20"/>
        <lane id=":240701690_0_1" index="1" disallow="tram rail_urban rail rail_electric rail_fast ship" speed="8.14" length="14.19" shape="146.04,149.40 149.71,148.03 152.96,148.10 155.79,149.61 158.20,152.56"/>
    </edge>
    <edge id=":240701690_2" function="internal">
        <lane id=":240701690_2_0" index="0" disallow="tram rail_urban rail rail_electric rail_fast ship" speed="6.52" length="8.98" shape="146.86,139.03 147.68,141.35 147.56,143.37 146.51,145.12 144.53,146.58"/>
    </edge>
    <edge id=":240701690_3" function="internal">
        <lane id=":240701690_3_0" index="0" disallow="tram rail_urban rail rail_electric rail_fast ship" speed="13.89" length="17.34" shape="146.86,139.03 155.46,154.20"/>
        <lane id=":240701690_3_1" index="1" disallow="tram rail_urban rail rail_electric rail_fast ship" speed="13.89" length="17.34" shape="149.70,137.55 158.20,152.56"/>
    </edge>
    <edge id=":4738304966_0" function="internal">
        <lane id=":4738304966_0_0" index="0" disallow="tram rail_urban rail rail_electric rail_fast ship" speed="13.89" length="8.24" shape="219.93,227.87 216.32,235.28"/>
    </edge>
    <edge id=":4738304966_1" function="internal">
        <lane id=":4738304966_1_0" index="0" disallow="tram rail_urban rail rail_electric rail_fast ship" speed="13.89" length="8.08" shape="222.17,237.88 225.69,230.67"/>
        <lane id=":4738304966_1_1" index="1" disallow="tram rail_urban rail rail_electric rail_fast ship" speed="13.89" length="8.08" shape="219.24,236.58 222.81,229.27"/>
    </edge>
    <edge id=":4738304966_3" function="internal">
        <lane id=":4738304966_3_0" index="0" disallow="tram rail_urban rail rail_electric rail_fast ship" speed="10.73" length="8.21" shape="215.91,227.36 216.62,229.71 217.09,231.40 217.07,233.06 216.32,235.28"/>
    </edge>
    <edge id=":512064062_0" function="internal">
        <lane id=":512064062_0_0" index="0" disallow="tram rail_urban rail rail_electric rail_fast ship" speed="13.89" length="8.42" shape="97.99,171.59 95.58,172.33 93.69,172.10 91.81,171.88 89.41,172.63"/>
        <lane id=":512064062_0_1" index="1" disallow="tram rail_urban rail rail_electric rail_fast ship" speed="13.89" length="8.42" shape="97.99,171.59 90.96,175.43"/>
    </edge>
    <edge id=":512064062_2" function="internal">
        <lane id=":512064062_2_0" index="0" disallow="tram rail_urban rail rail_electric rail_fast ship" speed="13.89" length="8.37" shape="92.51,178.23 94.89,177.48 96.76,177.71 98.63,177.95 101.02,177.23"/>
        <lane id=":512064062_2_1" index="1" disallow="tram rail_urban rail rail_electric rail_fast ship" speed="13.89" length="8.37" shape="92.51,178.23 99.51,174.41"/>
    </edge>
    <edge id=":5974106815_0" function="internal">
        <lane id=":5974106815_0_0" index="0" disallow="tram rail_urban rail rail_electric rail_fast ship" speed="13.89" length="0.29" shape="95.35,39.33 95.48,39.64"/>
        <lane id=":5974106815_0_1" index="1" disallow="tram rail_urban rail rail_electric rail_fast ship" speed="13.89" length="0.29" shape="98.30,38.10 98.42,38.36"/>
        <lane id=":5974106815_0_2" index="2" disallow="tram rail_urban rail rail_electric rail_fast ship" speed="13.89" length="0.29" shape="101.26,36.86 101.35,37.08"/>
    </edge>
    <edge id=":6053837813_0" function="internal">
        <lane id=":6053837813_0_0" index="0" disallow="tram rail_urban rail rail_electric rail_fast ship" speed="13.89" length="7.61" shape="192.72,43.78 194.39,42.30 195.78,41.57 197.18,40.85 198.85,39.37"/>
        <lane id=":6053837813_0_1" index="1" disallow="tram rail_urban rail rail_electric rail_fast ship" speed="13.89" length="7.61" shape="190.34,41.63 192.01,40.15 193.41,39.43 194.81,38.70 196.48,37.22"/>
        <lane id=":6053837813_0_2" index="2" disallow="tram rail_urban rail rail_electric rail_fast ship" speed="13.89" length="7.61" shape="187.97,39.49 189.64,38.01 191.03,37.28 192.43,36.56 194.10,35.08"/>
        <lane id=":6053837813_0_3" index="3" disallow="tram rail_urban rail rail_electric rail_fast ship" speed="13.89" length="7.61" shape="185.59,37.34 187.26,35.87 188.66,35.14 190.05,34.41 191.72,32.94"/>
        <lane id=":6053837813_0_4" index="4" disallow="tram rail_urban rail rail_electric rail_fast ship" speed="13.89" length="7.61" shape="185.59,37.34 186.89,35.53 187.47,34.07 188.05,32.60 189.35,30.79"/>
    </edge>
    <edge id=":9369424354_0" function="internal">
        <lane id=":9369424354_0_0" index="0" disallow="tram rail_urban rail rail_electric rail_fast ship" speed="7.00" length="10.18" shape="97.33,19.22 94.96,20.79 93.60,22.71 93.25,24.98 93.91,27.59"/>
        <lane id=":9369424354_0_1" index="1" disallow="tram rail_urban rail rail_electric rail_fast ship" speed="6.23" length="7.85" shape="97.33,19.22 96.22,20.19 95.78,21.70 95.99,23.76 96.86,26.35"/>
    </edge>
    <edge id=":9369424354_2" function="internal">
        <lane id=":9369424354_2_0" index="0" disallow="tram rail_urban rail rail_electric rail_fast ship" speed="13.89" length="9.42" shape="87.32,20.13 90.96,28.82"/>
        <lane id=":9369424354_2_1" index="1" disallow="tram rail_urban rail rail_electric rail_fast ship" speed="13.89" length="9.42" shape="90.28,18.90 93.91,27.59"/>
        <lane id=":9369424354_2_2" index="2" disallow="tram rail_urban rail rail_electric rail_fast ship" speed="13.89" length="9.42" shape="93.23,17.67 96.86,26.35"/>
    </edge>
    <edge id=":9369424354_5" function="internal">
        <lane id=":9369424354_5_0" index="0" disallow="tram rail_urban rail rail_electric rail_fast ship" speed="6.02" length="7.90" shape="93.23,17.67 94.50,20.16 95.83,21.73 97.24,22.38 98.71,22.11"/>
    </edge>
    <edge id=":cluster_1729345577_1729345586_6369791261_0" function="internal">
        <lane id=":cluster_1729345577_1729345586_6369791261_0_0" index="0" disallow="tram rail_urban rail rail_electric rail_fast ship" speed="13.89" length="14.40" shape="217.82,194.12 213.86,192.63 211.15,191.60 208.52,190.39 204.80,188.39"/>
        <lane id=":cluster_1729345577_1729345586_6369791261_0_1" index="1" disallow="tram rail_urban rail rail_electric rail_fast ship" speed="13.89" length="14.40" shape="216.52,197.05 212.48,195.53 209.71,194.46 207.03,193.22 203.24,191.17"/>
    </edge>
    <edge id=":cluster_1729345577_1729345586_6369791261_2" function="internal">
        <lane id=":cluster_1729345577_1729345586_6369791261_2_0" index="0" disallow="tram rail_urban rail rail_electric rail_fast ship" speed="13.89" length="14.70" shape="196.31,203.50 200.13,206.21 203.37,207.83 206.09,209.34 208.35,211.72"/>
    </edge>
    <edge id=":cluster_1729345577_1729345586_6369791261_3" function="internal">
        <lane id=":cluster_1729345577_1729345586_6369791261_3_0" index="0" disallow="tram rail_urban rail rail_electric rail_fast ship" speed="13.89" length="15.53" shape="197.91,200.65 201.56,203.45 204.40,204.88 207.46,205.95 211.80,207.66"/>
        <lane id=":cluster_1729345577_1729345586_6369791261_3_1" index="1" disallow="tram rail_urban rail rail_electric rail_fast ship" speed="13.89" length="15.53" shape="199.51,197.81 203.09,200.56 205.86,201.98 208.85,203.05 213.10,204.74"/>
    </edge>
    <edge id=":cluster_1729345577_1729345586_6369791261_5" function="internal">
        <lane id=":cluster_1729345577_1729345586_6369791261_5_0" index="0" disallow="tram rail_urban rail rail_electric rail_fast ship" speed="5.22" length="7.68" shape="199.51,197.81 202.93,197.55 204.69,196.35 204.79,194.23"/>
    </edge>
    <edge id=":cluster_1729345577_1729345586_6369791261_6" function="internal">
        <lane id=":cluster_1729345577_1729345586_6369791261_6_0" index="0" disallow="tram rail_urban rail rail_electric rail_fast ship" speed="5.22" length="3.43" shape="204.79,194.23 203.24,191.17"/>
    </edge>
    <edge id=":cluster_2377899625_2377899626_512061962_7148017791_0" function="internal">
        <lane id=":cluster_2377899625_2377899626_512061962_7148017791_0_0" index="0" disallow="tram rail_urban rail rail_electric rail_fast ship" speed="6.05" length="9.07" shape="41.86,197.01 39.32,197.39 37.45,196.81 36.26,195.25 35.75,192.72"/>
    </edge>
    <edge id=":cluster_2377899625_2377899626_512061962_7148017791_1" function="internal">
        <lane id=":cluster_2377899625_2377899626_512061962_7148017791_1_0" index="0" disallow="tram rail_urban rail rail_electric rail_fast ship" speed="13.89" length="30.54" shape="41.86,197.01 36.17,202.10 32.61,210.56 29.93,218.71 26.89,222.85"/>
    </edge>
    <edge id=":cluster_2377899625_2377899626_512061962_7148017791_2" function="internal">
        <lane id=":cluster_2377899625_2377899626_512061962_7148017791_2_0" index="0" disallow="tram rail_urban rail rail_electric rail_fast ship" speed="13.55" length="30.58" shape="42.78,200.07 38.97,202.75 35.98,208.22 33.81,216.48 32.45,227.54"/>
    </edge>
    <edge id=":cluster_2377899625_2377899626_512061962_7148017791_3" function="internal">
        <lane id=":cluster_2377899625_2377899626_512061962_7148017791_3_0" index="0" disallow="tram rail_urban rail rail_electric rail_fast ship" speed="12.71" length="26.83" shape="35.65,227.78 36.79,217.72 38.52,210.26 40.83,205.40 43.71,203.13"/>
    </edge>
    <edge id=":cluster_2377899625_2377899626_512061962_7148017791_4" function="internal">
        <lane id=":cluster_2377899625_2377899626_512061962_7148017791_4_0" index="0" disallow="tram rail_urban rail rail_electric rail_fast ship" speed="13.89" length="35.07" shape="35.65,227.78 35.86,220.90 35.95,210.26 35.91,199.61 35.75,192.72"/>
    </edge>
    <edge id=":cluster_2377899625_2377899626_512061962_7148017791_5" function="internal">
        <lane id=":cluster_2377899625_2377899626_512061962_7148017791_5_0" index="0" disallow="tram rail_urban rail rail_electric rail_fast ship" speed="6.80" length="12.42" shape="35.65,227.78 35.30,224.75 33.73,222.92 30.93,222.29 26.89,222.85"/>
    </edge>
    <edge id=":cluster_240701744_247043859_0" function="internal">
        <lane id=":cluster_240701744_247043859_0_0" index="0" disallow="tram rail_urban rail rail_electric rail_fast ship" speed="13.89" length="17.34" shape="243.36,202.45 238.52,200.77 235.08,199.99 231.64,199.22 226.78,197.60"/>
        <lane id=":cluster_240701744_247043859_0_1" index="1" disallow="tram rail_urban rail rail_electric rail_fast ship" speed="13.89" length="17.34" shape="242.26,205.46 237.40,203.77 233.95,202.98 230.49,202.21 225.61,200.58"/>
    </edge>
    <edge id=":cluster_240701744_247043859_2" function="internal">
        <lane id=":cluster_240701744_247043859_2_0" index="0" disallow="tram rail_urban rail rail_electric rail_fast ship" speed="10.18" length="10.22" shape="241.16,208.47 236.30,207.62 231.82,209.13 231.42,209.51"/>
    </edge>
    <edge id=":cluster_240701744_247043859_3" function="internal">
        <lane id=":cluster_240701744_247043859_3_0" index="0" disallow="tram rail_urban rail rail_electric rail_fast ship" speed="5.01" length="7.29" shape="241.16,208.47 237.94,209.25 236.45,210.65 236.67,212.57"/>
    </edge>
    <edge id=":cluster_240701744_247043859_10" function="internal">
        <lane id=":cluster_240701744_247043859_10_0" index="0" disallow="tram rail_urban rail rail_electric rail_fast ship" speed="10.18" length="12.36" shape="231.42,209.51 227.73,213.02 224.02,219.27"/>
    </edge>
    <edge id=":cluster_240701744_247043859_11" function="internal">
        <lane id=":cluster_240701744_247043859_11_0" index="0" disallow="tram rail_urban rail rail_electric rail_fast ship" speed="5.01" length="3.43" shape="236.67,212.57 236.68,212.69 238.64,215.36"/>
    </edge>
    <edge id=":cluster_240701744_247043859_4" function="internal">
        <lane id=":cluster_240701744_247043859_4_0" index="0" disallow="tram rail_urban rail rail_electric rail_fast ship" speed="6.90" length="9.56" shape="229.80,222.01 231.26,219.71 233.04,218.34 235.13,217.89 237.54,218.37"/>
        <lane id=":cluster_240701744_247043859_4_1" index="1" disallow="tram rail_urban rail rail_electric rail_fast ship" speed="8.33" length="14.38" shape="226.91,220.64 229.09,217.25 231.77,215.24 234.95,214.61 238.64,215.36"/>
    </edge>
    <edge id=":cluster_240701744_247043859_6" function="internal">
        <lane id=":cluster_240701744_247043859_6_0" index="0" disallow="tram rail_urban rail rail_electric rail_fast ship" speed="9.72" length="22.62" shape="226.91,220.64 229.76,213.19 230.49,207.36 229.11,203.16 225.61,200.58"/>
    </edge>
    <edge id=":cluster_240701744_247043859_7" function="internal">
        <lane id=":cluster_240701744_247043859_7_0" index="0" disallow="tram rail_urban rail rail_electric rail_fast ship" speed="13.89" length="17.55" shape="221.21,211.85 237.54,218.37"/>
        <lane id=":cluster_240701744_247043859_7_1" index="1" disallow="tram rail_urban rail rail_electric rail_fast ship" speed="13.89" length="17.55" shape="222.37,208.87 238.64,215.36"/>
    </edge>
    <edge id=":cluster_240701744_247043859_9" function="internal">
        <lane id=":cluster_240701744_247043859_9_0" index="0" disallow="tram rail_urban rail rail_electric rail_fast ship" speed="5.45" length="9.67" shape="222.37,208.87 226.29,208.01 228.14,206.34 227.91,203.87 227.52,203.31"/>
    </edge>
    <edge id=":cluster_240701744_247043859_12" function="internal">
        <lane id=":cluster_240701744_247043859_12_0" index="0" disallow="tram rail_urban rail rail_electric rail_fast ship" speed="5.45" length="3.33" shape="227.52,203.31 225.61,200.58"/>
    </edge>

    <edge id="-1015762652" from="9369424354" to="9369424361" priority="3" type="highway.residential" shape="92.19,23.48 94.47,22.39 112.00,13.88">
        <lane id="-1015762652_0" index="0" disallow="tram rail_urban rail rail_electric rail_fast ship" speed="13.89" length="15.55" shape="98.71,22.11 112.70,15.32">
            <param key="origId" value="1015762652"/>
        </lane>
    </edge>
    <edge id="-41661933" from="cluster_2377899625_2377899626_512061962_7148017791" to="512064062" name="Mount Elizabeth Link" priority="3" type="highway.residential" shape="36.36,203.68 40.22,202.52 50.08,199.53 60.97,193.89 95.24,174.89">
        <lane id="-41661933_0" index="0" disallow="tram rail_urban rail rail_electric rail_fast ship" speed="13.89" length="54.93" shape="43.71,203.13 50.69,201.02 61.73,195.30 92.51,178.23">
            <param key="origId" value="41661933 845291832"/>
        </lane>
        <param key="origFrom" value="2377899625"/>
    </edge>
    <edge id="-639562694" from="cluster_240701744_247043859" to="4738304966" name="Cairnhill Road" priority="10" type="highway.tertiary" shape="228.57,213.38 226.69,217.36 222.09,227.09 217.65,236.23">
        <lane id="-639562694_0" index="0" disallow="tram rail_urban rail rail_electric rail_fast ship" speed="13.89" length="9.52" shape="224.02,219.27 220.65,226.40 219.93,227.87">
            <param key="origId" value="639562694 635337855"/>
        </lane>
        <param key="origFrom" value="240701744"/>
    </edge>
    <edge id="-641087681" from="2377899637" to="cluster_2377899625_2377899626_512061962_7148017791" name="Mount Elizabeth" priority="3" type="highway.residential" shape="26.50,289.37 31.56,260.52 34.56,220.93">
        <lane id="-641087681_0" index="0" disallow="tram rail_urban rail rail_electric rail_fast ship" speed="13.89" length="62.40" shape="28.08,289.65 33.15,260.72 35.65,227.78">
            <param key="origId" value="641087681"/>
        </lane>
        <param key="origTo" value="2377899626"/>
    </edge>
    <edge id="-671752374" from="512064062" to="240701690" name="Mount Elizabeth Link" priority="3" type="highway.residential" shape="95.24,174.89 148.50,146.26 151.58,144.62">
        <lane id="-671752374_0" index="0" disallow="tram rail_urban rail rail_electric rail_fast ship" speed="13.89" length="52.82" shape="101.02,177.23 147.54,152.22">
            <param key="origId" value="671752374"/>
        </lane>
        <lane id="-671752374_1" index="1" disallow="tram rail_urban rail rail_electric rail_fast ship" speed="13.89" length="52.82" shape="99.51,174.41 146.04,149.40">
            <param key="origId" value="671752374"/>
        </lane>
    </edge>
    <edge id="-680290822" from="4738304966" to="6026340937" name="Cairnhill Road" priority="10" type="highway.tertiary" shape="217.65,236.23 214.16,244.09 203.26,269.54">
        <lane id="-680290822_0" index="0" disallow="tram rail_urban rail rail_electric rail_fast ship" speed="13.89" length="36.63" shape="216.32,235.28 212.69,243.45 201.79,268.91">
            <param key="origId" value="680290822 639562695"/>
        </lane>
    </edge>
    <edge id="1015762646" from="9369424354" to="5974106815" name="Bideford Road" priority="11" type="highway.secondary" spreadType="center">
        <lane id="1015762646_0" index="0" disallow="tram rail_urban rail rail_electric rail_fast ship" speed="13.89" length="11.39" shape="90.96,28.82 95.35,39.33">
            <param key="origId" value="1015762646"/>
        </lane>
        <lane id="1015762646_1" index="1" disallow="tram rail_urban rail rail_electric rail_fast ship" speed="13.89" length="11.39" shape="93.91,27.59 98.30,38.10">
            <param key="origId" value="1015762646"/>
        </lane>