<?xml version="1.0" encoding="UTF-8"?>

<!-- generated on 2023-07-17 11:24:37 by Eclipse SUMO netconvert Version 1.17.0
<configuration xmlns:xsi="http://www.w3.org/2001/XMLSchema-instance" xsi:noNamespaceSchemaLocation="http://sumo.dlr.de/xsd/netconvertConfiguration.xsd">

    <input>
        <sumo-net-file value="osm.net.xml.gz"/>
    </input>

    <output>
        <output-file value="osm.net.xml"/>
        <output.street-names value="true"/>
    </output>

    <processing>
        <geometry.min-radius.fix.railways value="false"/>
        <geometry.max-grade.fix value="false"/>
        <offset.disable-normalization value="true"/>
        <lefthand value="1"/>
    </processing>

    <junctions>
        <no-turnarounds value="true"/>
        <junctions.corner-detail value="5"/>
        <junctions.limit-turn-speed value="5.50"/>
        <rectangular-lane-cut value="0"/>
    </junctions>

    <pedestrian>
        <walkingareas value="0"/>
    </pedestrian>

</configuration>
-->

<net version="1.16" junctionCornerDetail="5" lefthand="true" limitTurnSpeed="5.50" xmlns:xsi="http://www.w3.org/2001/XMLSchema-instance" xsi:noNamespaceSchemaLocation="http://sumo.dlr.de/xsd/net_file.xsd">

    <location netOffset="-378520.06,-144237.42" convBoundary="0.00,0.00,333.85,472.02" origBoundary="103.908074,1.304721,103.911075,1.308990" projParameter="+proj=utm +zone=48 +ellps=WGS84 +datum=WGS84 +units=m +no_defs"/>

    <type id="highway.bridleway" priority="1" numLanes="1" speed="2.78" allow="pedestrian" oneway="1" width="2.00"/>
    <type id="highway.bus_guideway" priority="1" numLanes="1" speed="27.78" allow="bus" oneway="1"/>
    <type id="highway.cycleway" priority="1" numLanes="1" speed="5.56" allow="bicycle" oneway="0" width="1.00"/>
    <type id="highway.footway" priority="1" numLanes="1" speed="2.78" allow="pedestrian" oneway="1" width="2.00"/>
    <type id="highway.ford" priority="1" numLanes="1" speed="2.78" allow="army" oneway="0"/>
    <type id="highway.living_street" priority="2" numLanes="1" speed="2.78" disallow="tram rail_urban rail rail_electric rail_fast ship" oneway="0"/>
    <type id="highway.motorway" priority="14" numLanes="2" speed="39.44" allow="private emergency authority army vip passenger hov taxi bus coach delivery truck trailer motorcycle evehicle custom1 custom2" oneway="1"/>
    <type id="highway.motorway_link" priority="9" numLanes="1" speed="22.22" allow="private emergency authority army vip passenger hov taxi bus coach delivery truck trailer motorcycle evehicle custom1 custom2" oneway="1"/>
    <type id="highway.path" priority="1" numLanes="1" speed="5.56" allow="pedestrian bicycle" oneway="0" width="2.00"/>
    <type id="highway.pedestrian" priority="1" numLanes="1" speed="2.78" allow="pedestrian" oneway="1" width="2.00"/>
    <type id="highway.primary" priority="12" numLanes="2" speed="27.78" disallow="tram rail_urban rail rail_electric rail_fast ship" oneway="0"/>
    <type id="highway.primary_link" priority="7" numLanes="1" speed="22.22" disallow="tram rail_urban rail rail_electric rail_fast ship" oneway="0"/>
    <type id="highway.raceway" priority="15" numLanes="2" speed="83.33" allow="vip" oneway="0"/>
    <type id="highway.residential" priority="3" numLanes="1" speed="13.89" disallow="tram rail_urban rail rail_electric rail_fast ship" oneway="0"/>
    <type id="highway.secondary" priority="11" numLanes="1" speed="27.78" disallow="tram rail_urban rail rail_electric rail_fast ship" oneway="0"/>
    <type id="highway.secondary_link" priority="6" numLanes="1" speed="22.22" disallow="tram rail_urban rail rail_electric rail_fast ship" oneway="0"/>
    <type id="highway.service" priority="1" numLanes="1" speed="5.56" allow="pedestrian delivery bicycle" oneway="0"/>
    <type id="highway.stairs" priority="1" numLanes="1" speed="1.39" allow="pedestrian" oneway="1" width="2.00"/>
    <type id="highway.step" priority="1" numLanes="1" speed="1.39" allow="pedestrian" oneway="1" width="2.00"/>
    <type id="highway.steps" priority="1" numLanes="1" speed="1.39" allow="pedestrian" oneway="1" width="2.00"/>
    <type id="highway.tertiary" priority="10" numLanes="1" speed="22.22" disallow="tram rail_urban rail rail_electric rail_fast ship" oneway="0"/>
    <type id="highway.tertiary_link" priority="5" numLanes="1" speed="22.22" disallow="tram rail_urban rail rail_electric rail_fast ship" oneway="0"/>
    <type id="highway.track" priority="1" numLanes="1" speed="5.56" allow="pedestrian motorcycle moped bicycle" oneway="0"/>
    <type id="highway.trunk" priority="13" numLanes="2" speed="27.78" disallow="pedestrian bicycle tram rail_urban rail rail_electric rail_fast ship" oneway="0"/>
    <type id="highway.trunk_link" priority="8" numLanes="1" speed="22.22" disallow="pedestrian bicycle tram rail_urban rail rail_electric rail_fast ship" oneway="0"/>
    <type id="highway.unclassified" priority="4" numLanes="1" speed="13.89" disallow="tram rail_urban rail rail_electric rail_fast ship" oneway="0"/>
    <type id="highway.unsurfaced" priority="1" numLanes="1" speed="8.33" disallow="tram rail_urban rail rail_electric rail_fast ship" oneway="0"/>
    <type id="railway.highspeed" priority="21" numLanes="1" speed="69.44" allow="rail_fast" oneway="1"/>
    <type id="railway.light_rail" priority="19" numLanes="1" speed="27.78" allow="rail_urban" oneway="1"/>
    <type id="railway.preserved" priority="16" numLanes="1" speed="27.78" allow="rail" oneway="1"/>
    <type id="railway.rail" priority="20" numLanes="1" speed="44.44" allow="rail" oneway="1"/>
    <type id="railway.subway" priority="18" numLanes="1" speed="27.78" allow="rail_urban" oneway="1"/>
    <type id="railway.tram" priority="17" numLanes="1" speed="13.89" allow="tram" oneway="1"/>

    <edge id=":2061118237_0" function="internal">
        <lane id=":2061118237_0_0" index="0" disallow="tram rail_urban rail rail_electric rail_fast ship" speed="13.89" length="14.42" shape="164.42,349.17 159.63,362.77"/>
    </edge>
    <edge id=":2061118237_1" function="internal">
        <lane id=":2061118237_1_0" index="0" disallow="tram rail_urban rail rail_electric rail_fast ship" speed="7.80" length="4.09" shape="164.42,349.17 163.64,353.19"/>
    </edge>
    <edge id=":2061118237_7" function="internal">
        <lane id=":2061118237_7_0" index="0" disallow="tram rail_urban rail rail_electric rail_fast ship" speed="7.80" length="10.59" shape="163.64,353.19 164.40,356.34 166.69,358.64 170.53,360.07"/>
    </edge>
    <edge id=":2061118237_2" function="internal">
        <lane id=":2061118237_2_0" index="0" disallow="tram rail_urban rail rail_electric rail_fast ship" speed="6.26" length="9.05" shape="171.21,356.94 168.84,356.06 167.43,354.64 166.96,352.70 167.45,350.22"/>
    </edge>
    <edge id=":2061118237_3" function="internal">
        <lane id=":2061118237_3_0" index="0" disallow="tram rail_urban rail rail_electric rail_fast ship" speed="8.46" length="14.39" shape="171.21,356.94 167.18,356.59 163.90,357.44 161.38,359.50 159.63,362.77"/>
    </edge>
    <edge id=":2061118237_4" function="internal">
        <lane id=":2061118237_4_0" index="0" disallow="tram rail_urban rail rail_electric rail_fast ship" speed="3.65" length="4.67" shape="171.21,356.94 169.86,357.47 169.30,358.16 169.53,359.03 170.53,360.07"/>
    </edge>
    <edge id=":2061118237_5" function="internal">
        <lane id=":2061118237_5_0" index="0" disallow="tram rail_urban rail rail_electric rail_fast ship" speed="7.05" length="9.71" shape="162.64,363.84 163.81,361.70 165.52,360.35 167.76,359.81 170.53,360.07"/>
    </edge>
    <edge id=":2061118237_6" function="internal">
        <lane id=":2061118237_6_0" index="0" disallow="tram rail_urban rail rail_electric rail_fast ship" speed="13.89" length="14.44" shape="162.64,363.84 167.45,350.22"/>
    </edge>
    <edge id=":2061118238_0" function="internal">
        <lane id=":2061118238_0_0" index="0" disallow="tram rail_urban rail rail_electric rail_fast ship" speed="3.65" length="4.67" shape="229.60,372.87 230.94,372.35 231.50,371.65 231.28,370.78 230.28,369.75"/>
    </edge>
    <edge id=":2328917052_0" function="internal">
        <lane id=":2328917052_0_0" index="0" disallow="pedestrian bicycle tram rail_urban rail rail_electric rail_fast ship" speed="10.45" length="11.12" shape="217.67,53.84 216.57,55.67 214.76,57.37 212.23,58.92 208.99,60.34"/>
    </edge>
    <edge id=":2328917052_1" function="internal">
        <lane id=":2328917052_1_0" index="0" disallow="pedestrian bicycle tram rail_urban rail rail_electric rail_fast ship" speed="16.67" length="6.98" shape="220.65,54.99 219.55,56.20 218.06,56.31 216.51,56.40 215.21,57.51"/>
        <lane id=":2328917052_1_1" index="1" disallow="pedestrian bicycle tram rail_urban rail rail_electric rail_fast ship" speed="16.67" length="6.98" shape="223.64,56.14 222.48,57.47 220.95,57.70 219.34,57.89 217.98,59.13"/>
        <lane id=":2328917052_1_2" index="2" disallow="pedestrian bicycle tram rail_urban rail rail_electric rail_fast ship" speed="16.67" length="6.98" shape="226.62,57.29 225.41,58.75 223.83,59.08 222.17,59.38 220.74,60.74"/>
        <lane id=":2328917052_1_3" index="3" disallow="pedestrian bicycle tram rail_urban rail rail_electric rail_fast ship" speed="16.67" length="6.98" shape="229.61,58.44 228.35,60.03 226.72,60.47 225.00,60.87 223.51,62.35"/>
    </edge>
    <edge id=":2328917057_0" function="internal">
        <lane id=":2328917057_0_0" index="0" disallow="pedestrian bicycle tram rail_urban rail rail_electric rail_fast ship" speed="15.28" length="11.04" shape="189.48,58.76 186.47,58.16 184.22,57.78 181.94,57.18 178.86,55.92"/>
    </edge>
    <edge id=":2328917057_1" function="internal">
        <lane id=":2328917057_1_0" index="0" disallow="tram rail_urban rail rail_electric rail_fast ship" speed="16.67" length="11.34" shape="188.34,62.07 185.22,60.88 182.94,60.43 180.66,59.99 177.52,58.83"/>
        <lane id=":2328917057_1_1" index="1" disallow="tram rail_urban rail rail_electric rail_fast ship" speed="16.67" length="11.34" shape="187.01,64.98 183.88,63.79 181.60,63.34 179.32,62.90 176.18,61.74"/>
    </edge>
    <edge id=":243479630_0" function="internal">
        <lane id=":243479630_0_0" index="0" disallow="pedestrian bicycle tram rail_urban rail rail_electric rail_fast ship" speed="5.82" length="8.77" shape="124.39,289.12 121.90,288.26 120.54,286.93 120.31,285.14 121.20,282.88"/>
    </edge>
    <edge id=":243479630_1" function="internal">
        <lane id=":243479630_1_0" index="0" disallow="pedestrian bicycle tram rail_urban rail rail_electric rail_fast ship" speed="7.69" length="10.18" shape="114.92,295.53 116.39,293.60 118.36,292.42 120.81,291.97 123.76,292.25"/>
    </edge>
    <edge id=":243479630_2" function="internal">
        <lane id=":243479630_2_0" index="0" disallow="pedestrian bicycle tram rail_urban rail rail_electric rail_fast ship" speed="16.67" length="13.35" shape="114.92,295.53 121.20,282.88"/>
        <lane id=":243479630_2_1" index="1" disallow="pedestrian bicycle tram rail_urban rail rail_electric rail_fast ship" speed="16.67" length="13.35" shape="112.10,294.02 117.99,282.04"/>
        <lane id=":243479630_2_2" index="2" disallow="pedestrian bicycle tram rail_urban rail rail_electric rail_fast ship" speed="16.67" length="13.35" shape="109.28,292.51 114.77,281.20"/>
    </edge>
    <edge id=":258023237_0" function="internal">
        <lane id=":258023237_0_0" index="0" disallow="tram rail_urban rail rail_electric rail_fast ship" speed="3.65" length="4.67" shape="116.41,119.92 116.32,118.48 115.83,117.74 114.94,117.68 113.65,118.32"/>
    </edge>
    <edge id=":258023341_0" function="internal">
        <lane id=":258023341_0_0" index="0" disallow="tram rail_urban rail rail_electric rail_fast ship" speed="13.89" length="14.87" shape="189.50,302.43 174.91,299.55"/>
    </edge>
    <edge id=":258023341_1" function="internal">
        <lane id=":258023341_1_0" index="0" disallow="tram rail_urban rail rail_electric rail_fast ship" speed="8.56" length="3.96" shape="189.50,302.43 185.75,302.24 185.56,302.31"/>
    </edge>
    <edge id=":258023341_6" function="internal">
        <lane id=":258023341_6_0" index="0" disallow="tram rail_urban rail rail_electric rail_fast ship" speed="8.56" length="10.79" shape="185.56,302.31 182.62,303.36 180.13,305.80 178.28,309.55"/>
    </edge>
    <edge id=":258023341_2" function="internal">
        <lane id=":258023341_2_0" index="0" disallow="tram rail_urban rail rail_electric rail_fast ship" speed="7.25" length="10.30" shape="181.21,310.86 182.53,308.12 184.24,306.33 186.35,305.47 188.85,305.56"/>
    </edge>
    <edge id=":258023341_3" function="internal">
        <lane id=":258023341_3_0" index="0" disallow="tram rail_urban rail rail_electric rail_fast ship" speed="7.91" length="15.25" shape="181.21,310.86 182.04,306.65 181.27,303.37 178.89,301.00 174.91,299.55"/>
    </edge>
    <edge id=":258023341_4" function="internal">
        <lane id=":258023341_4_0" index="0" disallow="tram rail_urban rail rail_electric rail_fast ship" speed="6.29" length="9.22" shape="174.45,302.72 176.86,303.60 178.30,305.03 178.77,307.01 178.28,309.55"/>
    </edge>
    <edge id=":258023341_5" function="internal">
        <lane id=":258023341_5_0" index="0" disallow="tram rail_urban rail rail_electric rail_fast ship" speed="13.89" length="14.68" shape="174.45,302.72 188.85,305.56"/>
    </edge>
    <edge id=":259757812_0" function="internal">
        <lane id=":259757812_0_0" index="0" disallow="tram rail_urban rail rail_electric rail_fast ship" speed="3.65" length="4.67" shape="247.40,230.33 246.06,230.85 245.50,231.55 245.72,232.42 246.72,233.45"/>
    </edge>
    <edge id=":259757813_0" function="internal">
        <lane id=":259757813_0_0" index="0" disallow="tram rail_urban rail rail_electric rail_fast ship" speed="3.65" length="4.67" shape="318.41,248.86 319.76,248.33 320.31,247.64 320.09,246.77 319.09,245.74"/>
    </edge>
    <edge id=":259757814_0" function="internal">
        <lane id=":259757814_0_0" index="0" disallow="tram rail_urban rail rail_electric rail_fast ship" speed="6.07" length="8.61" shape="289.93,328.94 290.43,326.58 290.01,324.74 288.66,323.40 286.40,322.58"/>
    </edge>
    <edge id=":259757814_1" function="internal">
        <lane id=":259757814_1_0" index="0" disallow="tram rail_urban rail rail_electric rail_fast ship" speed="3.90" length="2.87" shape="285.75,325.71 286.50,325.99 286.95,326.43 287.09,327.05 286.92,327.83"/>
    </edge>
    <edge id=":4594224389_0" function="internal">
        <lane id=":4594224389_0_0" index="0" disallow="tram rail_urban rail rail_electric rail_fast ship" speed="6.60" length="7.90" shape="252.88,415.08 251.83,416.86 250.41,418.00 248.62,418.50 246.47,418.35"/>
        <lane id=":4594224389_0_1" index="1" disallow="tram rail_urban rail rail_electric rail_fast ship" speed="7.47" length="10.36" shape="252.88,415.08 251.31,418.18 249.60,420.28 247.73,421.38 245.72,421.47"/>
    </edge>
    <edge id=":4598966855_0" function="internal">
        <lane id=":4598966855_0_0" index="0" disallow="pedestrian bicycle tram rail_urban rail rail_electric rail_fast ship" speed="16.67" length="8.21" shape="105.53,268.81 104.20,270.82 102.97,271.99 101.74,273.15 100.41,275.16"/>
        <lane id=":4598966855_0_1" index="1" disallow="pedestrian bicycle tram rail_urban rail rail_electric rail_fast ship" speed="16.67" length="8.21" shape="108.37,270.29 107.04,272.30 105.81,273.47 104.58,274.63 103.25,276.64"/>
        <lane id=":4598966855_0_2" index="2" disallow="pedestrian bicycle tram rail_urban rail rail_electric rail_fast ship" speed="16.67" length="8.21" shape="111.20,271.77 109.88,273.78 108.65,274.95 107.42,276.12 106.08,278.13"/>
        <lane id=":4598966855_0_3" index="3" disallow="pedestrian bicycle tram rail_urban rail rail_electric rail_fast ship" speed="16.67" length="8.21" shape="111.20,271.77 110.32,274.01 110.06,275.69 109.81,277.37 108.92,279.61"/>
    </edge>
    <edge id=":4638920233_0" function="internal">
        <lane id=":4638920233_0_0" index="0" disallow="tram rail_urban rail rail_electric rail_fast ship" speed="3.65" length="4.67" shape="335.19,385.91 335.17,384.47 334.72,383.70 333.83,383.60 332.51,384.17"/>
    </edge>
    <edge id=":4683867921_0" function="internal">
        <lane id=":4683867921_0_0" index="0" disallow="pedestrian tram rail_urban rail rail_electric rail_fast ship" speed="16.67" length="8.18" shape="122.23,49.88 124.30,51.16 125.52,52.35 126.75,53.53 128.83,54.77"/>
        <lane id=":4683867921_0_1" index="1" disallow="pedestrian tram rail_urban rail rail_electric rail_fast ship" speed="16.67" length="8.18" shape="123.63,47.00 125.68,48.27 126.89,49.46 128.10,50.63 130.17,51.86"/>
        <lane id=":4683867921_0_2" index="2" disallow="pedestrian tram rail_urban rail rail_electric rail_fast ship" speed="16.67" length="8.18" shape="125.03,44.12 127.06,45.38 128.26,46.57 129.46,47.74 131.51,48.96"/>
        <lane id=":4683867921_0_3" index="3" disallow="pedestrian tram rail_urban rail rail_electric rail_fast ship" speed="16.67" length="8.18" shape="125.03,44.12 127.27,44.93 128.93,45.11 130.60,45.29 132.85,46.05"/>
    </edge>
    <edge id=":4700285320_0" function="internal">
        <lane id=":4700285320_0_0" index="0" disallow="pedestrian bicycle tram rail_urban rail rail_electric rail_fast ship" speed="16.67" length="8.31" shape="190.74,150.84 192.32,148.86 194.00,147.98 195.68,147.09 197.23,145.10"/>
        <lane id=":4700285320_0_1" index="1" disallow="pedestrian bicycle tram rail_urban rail rail_electric rail_fast ship" speed="16.67" length="8.31" shape="190.74,150.84 194.37,143.67"/>
        <lane id=":4700285320_0_2" index="2" disallow="pedestrian bicycle tram rail_urban rail rail_electric rail_fast ship" speed="16.67" length="8.31" shape="187.89,149.37 191.50,142.24"/>
        <lane id=":4700285320_0_3" index="3" disallow="pedestrian bicycle tram rail_urban rail rail_electric rail_fast ship" speed="16.67" length="8.31" shape="185.05,147.91 188.64,140.82"/>
        <lane id=":4700285320_0_4" index="4" disallow="pedestrian bicycle tram rail_urban rail rail_electric rail_fast ship" speed="16.67" length="8.31" shape="185.05,147.91 185.72,145.51 185.43,143.66 185.13,141.80 185.77,139.39"/>
    </edge>
    <edge id=":571443426_0" function="internal">
        <lane id=":571443426_0_0" index="0" disallow="pedestrian bicycle tram rail_urban rail rail_electric rail_fast ship" speed="10.73" length="6.13" shape="59.88,349.38 58.95,350.89 58.05,351.74 56.93,352.37 55.32,353.23"/>
    </edge>
    <edge id=":571443426_1" function="internal">
        <lane id=":571443426_1_0" index="0" disallow="pedestrian bicycle tram rail_urban rail rail_electric rail_fast ship" speed="16.67" length="6.86" shape="62.72,350.86 61.58,352.49 60.47,353.38 59.36,354.27 58.20,355.90"/>
        <lane id=":571443426_1_1" index="1" disallow="pedestrian bicycle tram rail_urban rail rail_electric rail_fast ship" speed="16.67" length="6.86" shape="65.56,352.34 64.41,353.97 63.30,354.87 62.19,355.76 61.03,357.40"/>
        <lane id=":571443426_1_2" index="2" disallow="pedestrian bicycle tram rail_urban rail rail_electric rail_fast ship" speed="16.67" length="6.86" shape="68.40,353.82 67.25,355.46 66.14,356.35 65.02,357.25 63.86,358.89"/>
        <lane id=":571443426_1_3" index="3" disallow="pedestrian bicycle tram rail_urban rail rail_electric rail_fast ship" speed="16.67" length="6.86" shape="71.23,355.29 70.08,356.94 68.97,357.84 67.85,358.74 66.70,360.38"/>
    </edge>
    <edge id=":6038584236_0" function="internal">
        <lane id=":6038584236_0_0" index="0" disallow="pedestrian bicycle tram rail_urban rail rail_electric rail_fast ship" speed="6.52" length="8.78" shape="46.73,458.59 44.57,457.56 43.23,456.07 42.71,454.15 43.01,451.77"/>
        <lane id=":6038584236_0_1" index="1" disallow="pedestrian bicycle tram rail_urban rail rail_electric rail_fast ship" speed="7.34" length="11.41" shape="46.73,458.59 43.24,457.14 40.94,455.38 39.83,453.31 39.93,450.93"/>
        <lane id=":6038584236_0_2" index="2" disallow="pedestrian bicycle tram rail_urban rail rail_electric rail_fast ship" speed="8.12" length="14.20" shape="46.73,458.59 41.90,456.73 38.64,454.69 36.95,452.47 36.84,450.08"/>
        <lane id=":6038584236_0_3" index="3" disallow="pedestrian bicycle tram rail_urban rail rail_electric rail_fast ship" speed="8.86" length="17.08" shape="46.73,458.59 40.56,456.31 36.34,453.99 34.07,451.64 33.75,449.24"/>
    </edge>
    <edge id=":6038598944_0" function="internal">
        <lane id=":6038598944_0_0" index="0" disallow="tram rail_urban rail rail_electric rail_fast ship" speed="13.89" length="14.26" shape="271.47,369.58 266.27,382.86"/>
    </edge>
    <edge id=":6038598944_1" function="internal">
        <lane id=":6038598944_1_0" index="0" disallow="tram rail_urban rail rail_electric rail_fast ship" speed="7.82" length="4.07" shape="271.47,369.58 270.61,373.56"/>
    </edge>
    <edge id=":6038598944_2" function="internal">
        <lane id=":6038598944_2_0" index="0" disallow="tram rail_urban rail rail_electric rail_fast ship" speed="3.65" length="1.44" shape="271.47,369.58 271.80,370.98"/>
    </edge>
    <edge id=":6038598944_8" function="internal">
        <lane id=":6038598944_8_0" index="0" disallow="tram rail_urban rail rail_electric rail_fast ship" speed="7.82" length="10.55" shape="270.61,373.56 271.30,376.72 273.52,379.08 277.29,380.63"/>
    </edge>
    <edge id=":6038598944_9" function="internal">
        <lane id=":6038598944_9_0" index="0" disallow="tram rail_urban rail rail_electric rail_fast ship" speed="3.65" length="3.23" shape="271.80,370.98 272.41,371.63 273.30,371.54 274.47,370.69"/>
    </edge>
    <edge id=":6038598944_3" function="internal">
        <lane id=":6038598944_3_0" index="0" disallow="tram rail_urban rail rail_electric rail_fast ship" speed="6.28" length="9.04" shape="278.07,377.52 275.74,376.57 274.36,375.11 273.94,373.15 274.47,370.69"/>
    </edge>
    <edge id=":6038598944_4" function="internal">
        <lane id=":6038598944_4_0" index="0" disallow="tram rail_urban rail rail_electric rail_fast ship" speed="8.50" length="14.33" shape="278.07,377.52 274.08,377.04 270.78,377.77 268.18,379.71 266.27,382.86"/>
    </edge>
    <edge id=":6038598944_5" function="internal">
        <lane id=":6038598944_5_0" index="0" disallow="tram rail_urban rail rail_electric rail_fast ship" speed="7.10" length="9.70" shape="269.22,384.09 270.50,382.01 272.27,380.74 274.54,380.28 277.29,380.63"/>
    </edge>
    <edge id=":6038598944_6" function="internal">
        <lane id=":6038598944_6_0" index="0" disallow="tram rail_urban rail rail_electric rail_fast ship" speed="13.89" length="14.39" shape="269.22,384.09 274.47,370.69"/>
    </edge>
    <edge id=":6038598944_7" function="internal">
        <lane id=":6038598944_7_0" index="0" disallow="tram rail_urban rail rail_electric rail_fast ship" speed="3.65" length="1.44" shape="269.22,384.09 268.95,382.67"/>
    </edge>
    <edge id=":6038598944_10" function="internal">
        <lane id=":6038598944_10_0" index="0" disallow="tram rail_urban rail rail_electric rail_fast ship" speed="3.65" length="3.23" shape="268.95,382.67 268.36,381.99 267.47,382.06 266.27,382.86"/>
    </edge>
    <edge id=":6106758503_0" function="internal">
        <lane id=":6106758503_0_0" index="0" disallow="pedestrian bicycle tram rail_urban rail rail_electric rail_fast ship" speed="16.67" length="8.19" shape="163.78,159.12 162.44,161.13 161.20,162.31 159.98,163.49 158.67,165.52"/>
        <lane id=":6106758503_0_1" index="1" disallow="pedestrian bicycle tram rail_urban rail rail_electric rail_fast ship" speed="16.67" length="8.19" shape="166.61,160.62 165.27,162.62 164.04,163.78 162.83,164.95 161.53,166.96"/>
        <lane id=":6106758503_0_2" index="2" disallow="pedestrian bicycle tram rail_urban rail rail_electric rail_fast ship" speed="16.67" length="8.19" shape="166.61,160.62 165.72,162.84 165.47,164.50 165.24,166.17 164.38,168.41"/>
    </edge>
    <edge id=":6117501492_0" function="internal">
        <lane id=":6117501492_0_0" index="0" disallow="tram rail_urban rail rail_electric rail_fast ship" speed="13.89" length="8.21" shape="116.07,405.34 118.37,406.06 119.84,406.92 121.30,407.78 123.60,408.50"/>
        <lane id=":6117501492_0_1" index="1" disallow="tram rail_urban rail rail_electric rail_fast ship" speed="13.89" length="8.21" shape="116.71,402.21 119.01,402.93 120.47,403.79 121.93,404.64 124.23,405.36"/>
        <lane id=":6117501492_0_2" index="2" disallow="tram rail_urban rail rail_electric rail_fast ship" speed="13.89" length="8.21" shape="116.71,402.21 119.11,402.44 120.78,402.22 122.46,401.99 124.86,402.22"/>
    </edge>
    <edge id=":6214208486_0" function="internal">
        <lane id=":6214208486_0_0" index="0" disallow="tram rail_urban rail rail_electric rail_fast ship" speed="3.65" length="4.67" shape="103.27,416.55 102.71,415.22 102.00,414.68 101.14,414.92 100.13,415.95"/>
    </edge>
    <edge id=":6231510173_0" function="internal">
        <lane id=":6231510173_0_0" index="0" disallow="tram rail_urban rail rail_electric rail_fast ship" speed="3.65" length="4.67" shape="21.82,202.25 21.88,203.69 22.36,204.45 23.25,204.52 24.56,203.91"/>
    </edge>
    <edge id=":6277874985_0" function="internal">
        <lane id=":6277874985_0_0" index="0" disallow="tram rail_urban rail rail_electric rail_fast ship" speed="3.65" length="4.67" shape="-1.38,316.08 -1.29,317.52 -0.80,318.26 0.09,318.32 1.38,317.68"/>
    </edge>
    <edge id=":6957737177_0" function="internal">
        <lane id=":6957737177_0_0" index="0" disallow="pedestrian bicycle tram rail_urban rail rail_electric rail_fast ship" speed="16.67" length="8.21" shape="93.19,288.95 91.86,290.96 90.63,292.13 89.40,293.30 88.07,295.31"/>
        <lane id=":6957737177_0_1" index="1" disallow="pedestrian bicycle tram rail_urban rail rail_electric rail_fast ship" speed="16.67" length="8.21" shape="93.19,288.95 92.30,291.19 92.05,292.87 91.79,294.54 90.90,296.79"/>
        <lane id=":6957737177_0_2" index="2" disallow="pedestrian bicycle tram rail_urban rail rail_electric rail_fast ship" speed="16.67" length="8.21" shape="96.03,290.43 95.14,292.67 94.88,294.35 94.63,296.03 93.74,298.27"/>
        <lane id=":6957737177_0_3" index="3" disallow="pedestrian bicycle tram rail_urban rail rail_electric rail_fast ship" speed="16.67" length="8.21" shape="98.86,291.92 97.97,294.16 97.72,295.83 97.46,297.51 96.58,299.75"/>
        <lane id=":6957737177_0_4" index="4" disallow="pedestrian bicycle tram rail_urban rail rail_electric rail_fast ship" speed="16.67" length="8.21" shape="101.70,293.40 100.81,295.64 100.55,297.31 100.30,298.99 99.42,301.23"/>
    </edge>
    <edge id=":7591421593_0" function="internal">
        <lane id=":7591421593_0_0" index="0" disallow="tram rail_urban rail rail_electric rail_fast ship" speed="3.65" length="4.67" shape="98.38,82.95 98.32,81.51 97.84,80.75 96.95,80.68 95.64,81.29"/>
    </edge>
    <edge id=":cluster_1851040014_243479633_243479637_243479736_#4more_0" function="internal">
        <lane id=":cluster_1851040014_243479633_243479637_243479736_#4more_0_0" index="0" disallow="pedestrian bicycle tram rail_urban rail rail_electric rail_fast ship" speed="16.67" length="39.31" shape="215.12,57.69 198.68,93.41"/>
        <lane id=":cluster_1851040014_243479633_243479637_243479736_#4more_0_1" index="1" disallow="pedestrian bicycle tram rail_urban rail rail_electric rail_fast ship" speed="16.67" length="39.31" shape="217.88,59.30 201.45,95.00"/>
    </edge>
    <edge id=":cluster_1851040014_243479633_243479637_243479736_#4more_2" function="internal">
        <lane id=":cluster_1851040014_243479633_243479637_243479736_#4more_2_0" index="0" disallow="pedestrian bicycle tram rail_urban rail rail_electric rail_fast ship" speed="12.30" length="21.69" shape="220.65,60.92 216.11,71.66 215.76,80.23 216.56,81.44"/>
    </edge>
    <edge id=":cluster_1851040014_243479633_243479637_243479736_#4more_3" function="internal">
        <lane id=":cluster_1851040014_243479633_243479637_243479736_#4more_3_0" index="0" disallow="pedestrian bicycle tram rail_urban rail rail_electric rail_fast ship" speed="5.50" length="4.79" shape="223.41,62.53 226.51,65.26 227.16,65.39"/>
    </edge>
    <edge id=":cluster_1851040014_243479633_243479637_243479736_#4more_18" function="internal">
        <lane id=":cluster_1851040014_243479633_243479637_243479736_#4more_18_0" index="0" disallow="pedestrian bicycle tram rail_urban rail rail_electric rail_fast ship" speed="12.30" length="17.72" shape="216.56,81.44 220.22,86.92 230.11,92.00"/>
    </edge>
    <edge id=":cluster_1851040014_243479633_243479637_243479736_#4more_19" function="internal">
        <lane id=":cluster_1851040014_243479633_243479637_243479736_#4more_19_0" index="0" disallow="pedestrian bicycle tram rail_urban rail rail_electric rail_fast ship" speed="5.50" length="8.57" shape="227.16,65.39 229.01,65.77 230.93,64.08 232.26,60.18"/>
    </edge>
    <edge id=":cluster_1851040014_243479633_243479637_243479736_#4more_4" function="internal">
        <lane id=":cluster_1851040014_243479633_243479637_243479736_#4more_4_0" index="0" disallow="pedestrian bicycle tram rail_urban rail rail_electric rail_fast ship" speed="8.24" length="12.81" shape="217.58,104.28 219.99,100.82 222.46,98.60 224.97,97.62 227.54,97.89"/>
    </edge>
    <edge id=":cluster_1851040014_243479633_243479637_243479736_#4more_5" function="internal">