<?xml version="1.0" encoding="UTF-8"?>

<!-- generated on 2023-07-14 11:25:43 by Eclipse SUMO netconvert Version 1.17.0
<configuration xmlns:xsi="http://www.w3.org/2001/XMLSchema-instance" xsi:noNamespaceSchemaLocation="http://sumo.dlr.de/xsd/netconvertConfiguration.xsd">

    <input>
        <sumo-net-file value="osm.net.xml.gz"/>
    </input>

    <output>
        <output-file value="osm.net.xml"/>
        <output.street-names value="true"/>
    </output>

    <processing>
        <geometry.min-radius.fix.railways value="false"/>
        <geometry.max-grade.fix value="false"/>
        <offset.disable-normalization value="true"/>
        <lefthand value="0"/>
    </processing>

    <junctions>
        <no-turnarounds value="true"/>
        <junctions.corner-detail value="5"/>
        <junctions.limit-turn-speed value="5.50"/>
        <rectangular-lane-cut value="0"/>
    </junctions>

    <pedestrian>
        <walkingareas value="0"/>
    </pedestrian>

</configuration>
-->

<net version="1.16" junctionCornerDetail="5" limitTurnSpeed="5.50" xmlns:xsi="http://www.w3.org/2001/XMLSchema-instance" xsi:noNamespaceSchemaLocation="http://sumo.dlr.de/xsd/net_file.xsd">

    <location netOffset="-366375.29,-160961.41" convBoundary="0.00,0.00,411.10,200.44" origBoundary="103.798852,1.455944,103.802546,1.457758" projParameter="+proj=utm +zone=48 +ellps=WGS84 +datum=WGS84 +units=m +no_defs"/>

    <type id="highway.bridleway" priority="1" numLanes="1" speed="2.78" allow="pedestrian" oneway="1" width="2.00"/>
    <type id="highway.bus_guideway" priority="1" numLanes="1" speed="27.78" allow="bus" oneway="1"/>
    <type id="highway.cycleway" priority="1" numLanes="1" speed="5.56" allow="bicycle" oneway="0" width="1.00"/>
    <type id="highway.footway" priority="1" numLanes="1" speed="2.78" allow="pedestrian" oneway="1" width="2.00"/>
    <type id="highway.ford" priority="1" numLanes="1" speed="2.78" allow="army" oneway="0"/>
    <type id="highway.living_street" priority="2" numLanes="1" speed="2.78" disallow="tram rail_urban rail rail_electric rail_fast ship" oneway="0"/>
    <type id="highway.motorway" priority="14" numLanes="2" speed="39.44" allow="private emergency authority army vip passenger hov taxi bus coach delivery truck trailer motorcycle evehicle custom1 custom2" oneway="1"/>
    <type id="highway.motorway_link" priority="9" numLanes="1" speed="22.22" allow="private emergency authority army vip passenger hov taxi bus coach delivery truck trailer motorcycle evehicle custom1 custom2" oneway="1"/>
    <type id="highway.path" priority="1" numLanes="1" speed="5.56" allow="pedestrian bicycle" oneway="0" width="2.00"/>
    <type id="highway.pedestrian" priority="1" numLanes="1" speed="2.78" allow="pedestrian" oneway="1" width="2.00"/>
    <type id="highway.primary" priority="12" numLanes="2" speed="27.78" disallow="tram rail_urban rail rail_electric rail_fast ship" oneway="0"/>
    <type id="highway.primary_link" priority="7" numLanes="1" speed="22.22" disallow="tram rail_urban rail rail_electric rail_fast ship" oneway="0"/>
    <type id="highway.raceway" priority="15" numLanes="2" speed="83.33" allow="vip" oneway="0"/>
    <type id="highway.residential" priority="3" numLanes="1" speed="13.89" disallow="tram rail_urban rail rail_electric rail_fast ship" oneway="0"/>
    <type id="highway.secondary" priority="11" numLanes="1" speed="27.78" disallow="tram rail_urban rail rail_electric rail_fast ship" oneway="0"/>
    <type id="highway.secondary_link" priority="6" numLanes="1" speed="22.22" disallow="tram rail_urban rail rail_electric rail_fast ship" oneway="0"/>
    <type id="highway.service" priority="1" numLanes="1" speed="5.56" allow="pedestrian delivery bicycle" oneway="0"/>
    <type id="highway.stairs" priority="1" numLanes="1" speed="1.39" allow="pedestrian" oneway="1" width="2.00"/>
    <type id="highway.step" priority="1" numLanes="1" speed="1.39" allow="pedestrian" oneway="1" width="2.00"/>
    <type id="highway.steps" priority="1" numLanes="1" speed="1.39" allow="pedestrian" oneway="1" width="2.00"/>
    <type id="highway.tertiary" priority="10" numLanes="1" speed="22.22" disallow="tram rail_urban rail rail_electric rail_fast ship" oneway="0"/>
    <type id="highway.tertiary_link" priority="5" numLanes="1" speed="22.22" disallow="tram rail_urban rail rail_electric rail_fast ship" oneway="0"/>
    <type id="highway.track" priority="1" numLanes="1" speed="5.56" allow="pedestrian motorcycle moped bicycle" oneway="0"/>
    <type id="highway.trunk" priority="13" numLanes="2" speed="27.78" disallow="pedestrian bicycle tram rail_urban rail rail_electric rail_fast ship" oneway="0"/>
    <type id="highway.trunk_link" priority="8" numLanes="1" speed="22.22" disallow="pedestrian bicycle tram rail_urban rail rail_electric rail_fast ship" oneway="0"/>
    <type id="highway.unclassified" priority="4" numLanes="1" speed="13.89" disallow="tram rail_urban rail rail_electric rail_fast ship" oneway="0"/>
    <type id="highway.unsurfaced" priority="1" numLanes="1" speed="8.33" disallow="tram rail_urban rail rail_electric rail_fast ship" oneway="0"/>
    <type id="railway.highspeed" priority="21" numLanes="1" speed="69.44" allow="rail_fast" oneway="1"/>
    <type id="railway.light_rail" priority="19" numLanes="1" speed="27.78" allow="rail_urban" oneway="1"/>
    <type id="railway.preserved" priority="16" numLanes="1" speed="27.78" allow="rail" oneway="1"/>
    <type id="railway.rail" priority="20" numLanes="1" speed="44.44" allow="rail" oneway="1"/>
    <type id="railway.subway" priority="18" numLanes="1" speed="27.78" allow="rail_urban" oneway="1"/>
    <type id="railway.tram" priority="17" numLanes="1" speed="13.89" allow="tram" oneway="1"/>

    <edge id=":1436128879_0" function="internal">
        <lane id=":1436128879_0_0" index="0" disallow="tram rail_urban rail rail_electric rail_fast ship" speed="19.44" length="5.64" shape="218.88,79.49 217.39,78.88 216.45,78.25 215.50,77.64 213.98,77.10"/>
        <lane id=":1436128879_0_1" index="1" disallow="tram rail_urban rail rail_electric rail_fast ship" speed="19.44" length="5.64" shape="219.79,76.43 218.25,75.80 217.28,75.16 216.30,74.54 214.74,73.99"/>
        <lane id=":1436128879_0_2" index="2" disallow="tram rail_urban rail rail_electric rail_fast ship" speed="19.44" length="5.64" shape="220.71,73.36 219.12,72.72 218.12,72.07 217.11,71.44 215.50,70.89"/>
    </edge>
    <edge id=":1436128879_3" function="internal">
        <lane id=":1436128879_3_0" index="0" disallow="tram rail_urban rail rail_electric rail_fast ship" speed="13.25" length="5.26" shape="221.62,70.29 220.17,69.78 219.24,69.26 218.42,68.55 217.27,67.49"/>
    </edge>
    <edge id=":1436128917_0" function="internal">
        <lane id=":1436128917_0_0" index="0" disallow="tram rail_urban rail rail_electric rail_fast ship" speed="19.44" length="7.68" shape="238.84,105.56 241.11,105.98 242.74,105.93 244.34,105.95 246.54,106.56"/>
        <lane id=":1436128917_0_1" index="1" disallow="tram rail_urban rail rail_electric rail_fast ship" speed="19.44" length="7.68" shape="237.93,108.63 240.11,109.02 241.68,108.95 243.23,108.94 245.34,109.53"/>
    </edge>
    <edge id=":1436128939_0" function="internal">
        <lane id=":1436128939_0_0" index="0" disallow="tram rail_urban rail rail_electric rail_fast ship" speed="19.44" length="8.27" shape="250.91,86.05 248.64,85.69 246.98,86.24 245.29,86.85 242.95,86.67"/>
        <lane id=":1436128939_0_1" index="1" disallow="tram rail_urban rail rail_electric rail_fast ship" speed="19.44" length="8.27" shape="252.10,83.08 249.75,82.68 248.03,83.21 246.28,83.81 243.87,83.61"/>
        <lane id=":1436128939_0_2" index="2" disallow="tram rail_urban rail rail_electric rail_fast ship" speed="19.44" length="8.27" shape="252.10,83.08 249.96,82.23 248.48,81.69 246.98,81.20 244.78,80.54"/>
        <lane id=":1436128939_0_3" index="3" disallow="tram rail_urban rail rail_electric rail_fast ship" speed="19.44" length="8.27" shape="252.10,83.08 250.00,81.71 248.94,80.14 247.86,78.64 245.70,77.47"/>
    </edge>
    <edge id=":4606975344_0" function="internal">
        <lane id=":4606975344_0_0" index="0" disallow="tram rail_urban rail rail_electric rail_fast ship" speed="19.44" length="21.76" shape="160.00,63.03 139.33,56.15"/>
        <lane id=":4606975344_0_1" index="1" disallow="tram rail_urban rail rail_electric rail_fast ship" speed="19.44" length="21.76" shape="160.78,59.92 140.15,53.06"/>
    </edge>
    <edge id=":4606975344_2" function="internal">
        <lane id=":4606975344_2_0" index="0" disallow="tram rail_urban rail rail_electric rail_fast ship" speed="16.66" length="21.97" shape="161.76,51.64 157.72,52.85 152.79,53.87 146.93,54.13 140.15,53.06"/>
    </edge>
    <edge id=":4606975348_0" function="internal">
        <lane id=":4606975348_0_0" index="0" disallow="tram rail_urban rail rail_electric rail_fast ship" speed="16.67" length="7.39" shape="189.43,37.18 188.70,39.22 187.79,40.47 186.86,41.71 186.07,43.74"/>
        <lane id=":4606975348_0_1" index="1" disallow="tram rail_urban rail rail_electric rail_fast ship" speed="16.67" length="7.39" shape="186.30,36.51 185.57,38.52 184.67,39.75 183.74,40.98 182.96,42.98"/>
    </edge>
    <edge id=":4606975348_2" function="internal">
        <lane id=":4606975348_2_0" index="0" disallow="tram rail_urban rail rail_electric rail_fast ship" speed="11.56" length="6.56" shape="183.17,35.84 182.63,37.66 181.94,38.78 180.96,39.76 179.57,41.14"/>
    </edge>
    <edge id=":4606975349_0" function="internal">
        <lane id=":4606975349_0_0" index="0" disallow="tram rail_urban rail rail_electric rail_fast ship" speed="11.16" length="6.95" shape="203.51,43.31 202.87,41.34 202.41,39.93 202.31,38.54 202.75,36.58"/>
    </edge>
    <edge id=":4606975349_1" function="internal">
        <lane id=":4606975349_1_0" index="0" disallow="tram rail_urban rail rail_electric rail_fast ship" speed="16.67" length="7.95" shape="196.55,42.62 196.79,40.27 196.50,38.61 196.26,36.95 196.65,34.65"/>
        <lane id=":4606975349_1_1" index="1" disallow="tram rail_urban rail rail_electric rail_fast ship" speed="16.67" length="7.95" shape="199.66,43.37 199.89,41.09 199.59,39.47 199.33,37.86 199.70,35.62"/>
    </edge>
    <edge id=":cluster_1531262478_1531262506_1531262669_244383192_0" function="internal">
        <lane id=":cluster_1531262478_1531262506_1531262669_244383192_0_0" index="0" disallow="tram rail_urban rail rail_electric rail_fast ship" speed="19.44" length="13.76" shape="190.96,71.48 177.59,67.89"/>
        <lane id=":cluster_1531262478_1531262506_1531262669_244383192_0_1" index="1" disallow="tram rail_urban rail rail_electric rail_fast ship" speed="19.44" length="13.76" shape="191.80,68.39 178.59,64.86"/>
    </edge>
    <edge id=":cluster_1531262478_1531262506_1531262669_244383192_2" function="internal">
        <lane id=":cluster_1531262478_1531262506_1531262669_244383192_2_0" index="0" disallow="tram rail_urban rail rail_electric rail_fast ship" speed="9.35" length="21.55" shape="192.65,65.31 201.38,75.34 202.99,83.43"/>
    </edge>
    <edge id=":cluster_1531262478_1531262506_1531262669_244383192_3" function="internal">
        <lane id=":cluster_1531262478_1531262506_1531262669_244383192_3_0" index="0" disallow="tram rail_urban rail rail_electric rail_fast ship" speed="19.44" length="13.51" shape="192.65,65.31 179.60,61.82"/>
    </edge>
    <edge id=":cluster_1531262478_1531262506_1531262669_244383192_13" function="internal">
        <lane id=":cluster_1531262478_1531262506_1531262669_244383192_13_0" index="0" disallow="tram rail_urban rail rail_electric rail_fast ship" speed="9.35" length="21.55" shape="202.99,83.43 197.49,89.58 184.87,93.78"/>
    </edge>
    <edge id=":cluster_1531262478_1531262506_1531262669_244383192_4" function="internal">
        <lane id=":cluster_1531262478_1531262506_1531262669_244383192_4_0" index="0" disallow="tram rail_urban rail rail_electric rail_fast ship" speed="10.64" length="24.89" shape="180.83,65.74 179.61,74.29 180.16,80.78 182.47,85.22 186.55,87.60"/>
    </edge>
    <edge id=":cluster_1531262478_1531262506_1531262669_244383192_5" function="internal">
        <lane id=":cluster_1531262478_1531262506_1531262669_244383192_5_0" index="0" disallow="tram rail_urban rail rail_electric rail_fast ship" speed="7.07" length="11.83" shape="177.72,64.98 183.08,60.03 187.50,59.02"/>
    </edge>
    <edge id=":cluster_1531262478_1531262506_1531262669_244383192_6" function="internal">
        <lane id=":cluster_1531262478_1531262506_1531262669_244383192_6_0" index="0" disallow="tram rail_urban rail rail_electric rail_fast ship" speed="11.61" length="29.85" shape="177.72,64.98 176.39,74.91 177.28,82.51 180.39,87.76 185.71,90.69"/>
    </edge>
    <edge id=":cluster_1531262478_1531262506_1531262669_244383192_14" function="internal">
        <lane id=":cluster_1531262478_1531262506_1531262669_244383192_14_0" index="0" disallow="tram rail_urban rail rail_electric rail_fast ship" speed="7.07" length="11.83" shape="187.50,59.02 190.96,61.94 193.47,68.80"/>
    </edge>
    <edge id=":cluster_1531262478_1531262506_1531262669_244383192_7" function="internal">
        <lane id=":cluster_1531262478_1531262506_1531262669_244383192_7_0" index="0" disallow="tram rail_urban rail rail_electric rail_fast ship" speed="10.39" length="25.94" shape="172.83,82.28 178.83,82.94 183.75,80.78 187.59,75.82 190.35,68.04"/>
        <lane id=":cluster_1531262478_1531262506_1531262669_244383192_7_1" index="1" disallow="tram rail_urban rail rail_electric rail_fast ship" speed="10.88" length="28.53" shape="172.83,82.28 180.17,83.35 186.06,81.45 190.49,76.60 193.47,68.80"/>
    </edge>
    <edge id=":cluster_1531262478_1531262506_1531262669_244383192_9" function="internal">
        <lane id=":cluster_1531262478_1531262506_1531262669_244383192_9_0" index="0" disallow="tram rail_urban rail rail_electric rail_fast ship" speed="19.44" length="14.89" shape="172.83,82.28 186.55,87.60"/>
        <lane id=":cluster_1531262478_1531262506_1531262669_244383192_9_1" index="1" disallow="tram rail_urban rail rail_electric rail_fast ship" speed="19.44" length="14.89" shape="171.82,85.32 185.71,90.69"/>
        <lane id=":cluster_1531262478_1531262506_1531262669_244383192_9_2" index="2" disallow="tram rail_urban rail rail_electric rail_fast ship" speed="19.44" length="14.89" shape="170.82,88.36 184.87,93.78"/>
    </edge>
    <edge id=":cluster_1531262478_1531262506_1531262669_244383192_12" function="internal">
        <lane id=":cluster_1531262478_1531262506_1531262669_244383192_12_0" index="0" disallow="tram rail_urban rail rail_electric rail_fast ship" speed="9.58" length="22.75" shape="169.81,91.40 161.17,80.34 159.91,71.72"/>
    </edge>
    <edge id=":cluster_1531262478_1531262506_1531262669_244383192_15" function="internal">
        <lane id=":cluster_1531262478_1531262506_1531262669_244383192_15_0" index="0" disallow="tram rail_urban rail rail_electric rail_fast ship" speed="9.58" length="22.75" shape="159.91,71.72 166.06,65.54 179.60,61.82"/>
    </edge>

    <edge id="175840029" from="1436128917" to="1436128941" name="Admiralty Road West" priority="12" type="highway.primary" spreadType="center" shape="242.45,106.63 280.32,121.98 309.00,135.05 339.10,152.70 342.80,154.87 378.78,177.01 411.10,200.44">
        <lane id="175840029_0" index="0" disallow="tram rail_urban rail rail_electric rail_fast ship" speed="19.44" length="189.96" shape="246.54,106.56 280.95,120.51 309.74,133.63 339.91,151.32 343.62,153.50 379.67,175.68 412.04,199.14">
            <param key="origId" value="175840029"/>
        </lane>
        <lane id="175840029_1" index="1" disallow="tram rail_urban rail rail_electric rail_fast ship" speed="19.44" length="189.96" shape="245.34,109.53 279.69,123.45 308.26,136.47 338.29,154.08 341.98,156.24 377.89,178.34 410.16,201.74">
            <param key="origId" value="175840029"/>
        </lane>
    </edge>
    <edge id="175840074" from="4606975349" to="4491760735" name="Woodlands Avenue 8" priority="11" type="highway.secondary" spreadType="center">
        <lane id="175840074_0" index="0" disallow="tram rail_urban rail rail_electric rail_fast ship" speed="16.67" length="29.96" shape="196.65,34.65 205.70,6.09">
            <param key="origId" value="175840074"/>
        </lane>
        <lane id="175840074_1" index="1" disallow="tram rail_urban rail rail_electric rail_fast ship" speed="16.67" length="29.96" shape="199.70,35.62 208.75,7.06">
            <param key="origId" value="175840074"/>
        </lane>
        <lane id="175840074_2" index="2" disallow="tram rail_urban rail rail_electric rail_fast ship" speed="16.67" length="29.96" shape="202.75,36.58 211.80,8.03">
            <param key="origId" value="175840074"/>
        </lane>
    </edge>
    <edge id="465776410" from="4606975348" to="4606975344" priority="7" type="highway.primary_link" spreadType="center" shape="187.01,33.20 176.46,44.46 168.02,49.60 167.21,49.96 158.56,52.63 139.87,54.64">
        <lane id="465776410_0" index="0" disallow="tram rail_urban rail rail_electric rail_fast ship" speed="13.89" length="21.03" shape="179.57,41.14 176.46,44.46 168.02,49.60 167.21,49.96 161.76,51.64">
            <param key="origId" value="465776410"/>
        </lane>
    </edge>
    <edge id="465776411" from="1436128879" to="4606975349" priority="7" type="highway.primary_link" spreadType="center" shape="228.49,77.35 213.48,64.17 209.05,58.01 207.50,55.87 204.21,45.79 200.58,32.85">
        <lane id="465776411_0" index="0" disallow="tram rail_urban rail rail_electric rail_fast ship" speed="13.89" length="28.45" shape="217.27,67.49 213.48,64.17 209.05,58.01 207.50,55.87 204.21,45.79 203.51,43.31">
            <param key="origId" value="465776411"/>
        </lane>
    </edge>
    <edge id="481117339" from="1436128906" to="1436128939" name="Admiralty Road West" priority="12" type="highway.primary" spreadType="center">
        <lane id="481117339_0" index="0" disallow="tram rail_urban rail rail_electric rail_fast ship" speed="19.44" length="49.16" shape="296.60,104.21 250.91,86.05">
            <param key="origId" value="481117339"/>
        </lane>
        <lane id="481117339_1" index="1" disallow="tram rail_urban rail rail_electric rail_fast ship" speed="19.44" length="49.16" shape="297.78,101.23 252.10,83.08">
            <param key="origId" value="481117339"/>
        </lane>
    </edge>
    <edge id="537349457" from="4606975344" to="6575141418" name="Admiralty Road West" priority="12" type="highway.primary" spreadType="center" shape="139.87,54.64 116.31,48.38 52.97,29.50 0.00,10.32">
        <lane id="537349457_0" index="0" disallow="tram rail_urban rail rail_electric rail_fast ship" speed="19.44" length="146.67" shape="139.33,56.15 115.88,49.92 52.47,31.02 -0.54,11.82">
            <param key="origId" value="537349457"/>
        </lane>
        <lane id="537349457_1" index="1" disallow="tram rail_urban rail rail_electric rail_fast ship" speed="19.44" length="146.67" shape="140.15,53.06 116.74,46.84 53.47,27.98 0.54,8.82">
            <param key="origId" value="537349457"/>
        </lane>
    </edge>
    <edge id="632086953" from="1436128879" to="cluster_1531262478_1531262506_1531262669_244383192" name="Admiralty Road West" priority="12" type="highway.primary" spreadType="center" shape="228.49,77.35 191.91,68.42">
        <lane id="632086953_0" index="0" disallow="tram rail_urban rail rail_electric rail_fast ship" speed="19.44" length="23.61" shape="213.98,77.10 190.96,71.48">
            <param key="origId" value="632086953"/>
        </lane>
        <lane id="632086953_1" index="1" disallow="tram rail_urban rail rail_electric rail_fast ship" speed="19.44" length="23.61" shape="214.74,73.99 191.80,68.39">
            <param key="origId" value="632086953"/>
        </lane>
        <lane id="632086953_2" index="2" disallow="tram rail_urban rail rail_electric rail_fast ship" speed="19.44" length="23.61" shape="215.50,70.89 192.65,65.31">
            <param key="origId" value="632086953"/>
        </lane>
        <param key="origTo" value="244383192"/>
    </edge>
    <edge id="632090007" from="cluster_1531262478_1531262506_1531262669_244383192" to="4606975349" name="Woodlands Avenue 8" priority="11" type="highway.secondary" spreadType="center" shape="191.91,68.42 193.38,62.35 200.58,32.85">
        <lane id="632090007_0" index="0" disallow="tram rail_urban rail rail_electric rail_fast ship" speed="16.67" length="26.17" shape="190.35,68.04 191.83,61.97 196.55,42.62">
            <param key="origId" value="632090007"/>
        </lane>
        <lane id="632090007_1" index="1" disallow="tram rail_urban rail rail_electric rail_fast ship" speed="16.67" length="26.17" shape="193.47,68.80 194.93,62.73 199.66,43.37">
            <param key="origId" value="632090007"/>
        </lane>
        <param key="origFrom" value="244383192"/>
    </edge>
    <edge id="632366595" from="1436128865" to="cluster_1531262478_1531262506_1531262669_244383192" name="Admiralty Road West" priority="12" type="highway.primary" spreadType="center" shape="115.71,71.84 166.55,85.34 173.41,87.50">
        <lane id="632366595_0" index="0" disallow="tram rail_urban rail rail_electric rail_fast ship" speed="19.44" length="57.60" shape="116.94,67.20 167.89,80.73 172.83,82.28">
            <param key="origId" value="632366595"/>
        </lane>
        <lane id="632366595_1" index="1" disallow="tram rail_urban rail rail_electric rail_fast ship" speed="19.44" length="57.60" shape="116.12,70.29 167.00,83.80 171.82,85.32">
            <param key="origId" value="632366595"/>
        </lane>
        <lane id="632366595_2" index="2" disallow="tram rail_urban rail rail_electric rail_fast ship" speed="19.44" length="57.60" shape="115.30,73.39 166.10,86.88 170.82,88.36">
            <param key="origId" value="632366595"/>
        </lane>
        <lane id="632366595_3" index="3" disallow="tram rail_urban rail rail_electric rail_fast ship" speed="19.44" length="57.60" shape="114.48,76.48 165.21,89.95 169.81,91.40">
            <param key="origId" value="632366595"/>
        </lane>
        <param key="origTo" value="1531262478"/>
    </edge>
    <edge id="635636310" from="4606975348" to="cluster_1531262478_1531262506_1531262669_244383192" name="Woodlands Avenue 8" priority="11" type="highway.secondary" spreadType="center" shape="187.01,33.20 180.63,59.18 179.33,65.10">
        <lane id="635636310_0" index="0" disallow="tram rail_urban rail rail_electric rail_fast ship" speed="16.67" length="22.62" shape="186.07,43.74 182.19,59.54 180.83,65.74">
            <param key="origId" value="635636310"/>
        </lane>
        <lane id="635636310_1" index="1" disallow="tram rail_urban rail rail_electric rail_fast ship" speed="16.67" length="22.62" shape="182.96,42.98 179.07,58.82 177.72,64.98">
            <param key="origId" value="635636310"/>
        </lane>
        <param key="origTo" value="1531262506"/>
    </edge>
    <edge id="635636313" from="cluster_1531262478_1531262506_1531262669_244383192" to="4606975344" name="Admiralty Road West" priority="12" type="highway.primary" spreadType="center" shape="179.33,65.10 173.07,63.03 139.87,54.64">
        <lane id="635636313_0" index="0" disallow="tram rail_urban rail rail_electric rail_fast ship" speed="19.44" length="18.49" shape="177.59,67.89 172.17,66.10 160.00,63.03">
            <param key="origId" value="635636313"/>
        </lane>
        <lane id="635636313_1" index="1" disallow="tram rail_urban rail rail_electric rail_fast ship" speed="19.44" length="18.49" shape="178.59,64.86 173.07,63.03 160.78,59.92">
            <param key="origId" value="635636313"/>
        </lane>
        <lane id="635636313_2" index="2" disallow="tram rail_urban rail rail_electric rail_fast ship" speed="19.44" length="18.49" shape="179.60,61.82 173.97,59.96 161.57,56.82">
            <param key="origId" value="635636313"/>
        </lane>
        <param key="origFrom" value="1531262506"/>
    </edge>
    <edge id="655684809" from="cluster_1531262478_1531262506_1531262669_244383192" to="1436128917" name="Admiralty Road West" priority="12" type="highway.primary" spreadType="center" shape="185.71,90.69 224.09,101.18 242.45,106.63">
        <lane id="655684809_0" index="0" disallow="tram rail_urban rail rail_electric rail_fast ship" speed="19.44" length="55.17" shape="186.55,87.60 224.97,98.10 239.75,102.49">
            <param key="origId" value="655684809"/>
        </lane>
        <lane id="655684809_1" index="1" disallow="tram rail_urban rail rail_electric rail_fast ship" speed="19.44" length="55.17" shape="185.71,90.69 224.09,101.18 238.84,105.56">
            <param key="origId" value="655684809"/>
        </lane>
        <lane id="655684809_2" index="2" disallow="tram rail_urban rail rail_electric rail_fast ship" speed="19.44" length="55.17" shape="184.87,93.78 223.21,104.26 237.93,108.63">
            <param key="origId" value="655684809"/>
        </lane>
        <param key="origFrom" value="1531262669"/>
    </edge>
    <edge id="706760218" from="6641458388" to="4606975348" name="Woodlands Avenue 8" priority="11" type="highway.secondary" spreadType="center">
        <lane id="706760218_0" index="0" disallow="tram rail_urban rail rail_electric rail_fast ship" speed="16.67" length="37.35" shape="197.29,0.67 189.43,37.18">
            <param key="origId" value="706760218"/>
        </lane>
        <lane id="706760218_1" index="1" disallow="tram rail_urban rail rail_electric rail_fast ship" speed="16.67" length="37.35" shape="194.16,-0.00 186.30,36.51">
            <param key="origId" value="706760218"/>
        </lane>
        <lane id="706760218_2" index="2" disallow="tram rail_urban rail rail_electric rail_fast ship" speed="16.67" length="37.35" shape="191.03,-0.67 183.17,35.84">
            <param key="origId" value="706760218"/>
        </lane>
    </edge>
    <edge id="709840319" from="1436128939" to="1436128879" name="Admiralty Road West" priority="12" type="highway.primary" spreadType="center">
        <lane id="709840319_0" index="0" disallow="tram rail_urban rail rail_electric rail_fast ship" speed="19.44" length="25.12" shape="242.95,86.67 218.88,79.49">
            <param key="origId" value="709840319"/>
        </lane>
        <lane id="709840319_1" index="1" disallow="tram rail_urban rail rail_electric rail_fast ship" speed="19.44" length="25.12" shape="243.87,83.61 219.79,76.43">
            <param key="origId" value="709840319"/>
        </lane>
        <lane id="709840319_2" index="2" disallow="tram rail_urban rail rail_electric rail_fast ship" speed="19.44" length="25.12" shape="244.78,80.54 220.71,73.36">
            <param key="origId" value="709840319"/>
        </lane>
        <lane id="709840319_3" index="3" disallow="tram rail_urban rail rail_electric rail_fast ship" speed="19.44" length="25.12" shape="245.70,77.47 221.62,70.29">
            <param key="origId" value="709840319"/>
        </lane>
    </edge>

    <tlLogic id="cluster_1531262478_1531262506_1531262669_244383192" type="actuated" programID="0" offset="0">
        <phase duration="40" state="GGGgrrrGGGGGg" minDur="8" maxDur="50"/>
        <phase duration="5"  state="yyyyrrryyyyyy"/>
        <phase duration="40" state="GGGrGGgGGrrrr" minDur="7" maxDur="50"/>
        <phase duration="5"  state="yyyryyyyyrrrr"/>
    </tlLogic>

    <junction id="1436128865" type="dead_end" x="115.71" y="71.84" incLanes="" intLanes="" shape="114.07,78.03 117.35,65.65"/>
    <junction id="1436128879" type="priority" x="228.49" y="77.35" incLanes="709840319_0 709840319_1 709840319_2 709840319_3" intLanes=":1436128879_0_0 :1436128879_0_1 :1436128879_0_2 :1436128879_3_0" shape="218.42,81.03 222.08,68.76 220.52,68.16 220.03,67.84 219.57,67.45 219.04,66.95 218.32,66.29 216.21,68.70 215.88,69.33 213.60,78.66 215.44,79.38 216.03,79.79 216.61,80.21 217.35,80.63">
        <request index="0" response="0000" foes="0000" cont="0"/>
        <request index="1" response="0000" foes="0000" cont="0"/>
        <request index="2" response="0000" foes="0000" cont="0"/>
        <request index="3" response="0000" foes="0000" cont="0"/>
    </junction>
    <junction id="1436128906" type="dead_end" x="297.19" y="102.72" incLanes="" intLanes="" shape="298.37,99.75 296.01,105.69"/>
    <junction id="1436128917" type="priority" x="242.45" y="106.63" incLanes="655684809_0 655684809_1 655684809_2" intLanes=":1436128917_0_0 :1436128917_0_1" shape="244.74,111.01 247.14,105.08 244.54,103.59 243.72,102.88 242.89,102.20 241.80,101.56 240.20,100.96 237.47,110.16 240.16,110.54 241.15,110.46 242.13,110.41 243.27,110.54">
        <request index="0" response="00" foes="00" cont="0"/>
        <request index="1" response="00" foes="00" cont="0"/>
    </junction>
    <junction id="1436128939" type="priority" x="247.97" y="83.16" incLanes="481117339_0 481117339_1" intLanes=":1436128939_0_0 :1436128939_0_1 :1436128939_0_2 :1436128939_0_3" shape="250.32,87.54 252.69,81.59 250.13,79.69 249.47,78.63 248.79,77.60 247.80,76.68 246.15,75.94 242.49,88.21 245.39,88.21 246.45,87.75 247.51,87.32 248.74,87.16">
        <request index="0" response="0000" foes="0000" cont="0"/>
        <request index="1" response="0000" foes="0000" cont="0"/>
        <request index="2" response="0000" foes="0000" cont="0"/>
        <request index="3" response="0000" foes="0000" cont="0"/>
    </junction>
    <junction id="1436128941" type="dead_end" x="411.10" y="200.44" incLanes="175840029_0 175840029_1" intLanes="" shape="412.98,197.85 409.22,203.03"/>