<?xml version="1.0" encoding="UTF-8"?>

<!-- generated on 2023-07-14 10:26:26 by Eclipse SUMO netconvert Version 1.17.0
<configuration xmlns:xsi="http://www.w3.org/2001/XMLSchema-instance" xsi:noNamespaceSchemaLocation="http://sumo.dlr.de/xsd/netconvertConfiguration.xsd">

    <input>
        <sumo-net-file value="osm.net.xml.gz"/>
    </input>

    <output>
        <output-file value="osm.net.xml"/>
        <output.street-names value="true"/>
    </output>

    <processing>
        <geometry.min-radius.fix.railways value="false"/>
        <geometry.max-grade.fix value="false"/>
        <offset.disable-normalization value="true"/>
        <lefthand value="1"/>
    </processing>

    <junctions>
        <no-turnarounds value="true"/>
        <junctions.corner-detail value="5"/>
        <junctions.limit-turn-speed value="5.50"/>
        <rectangular-lane-cut value="0"/>
    </junctions>

    <pedestrian>
        <walkingareas value="0"/>
    </pedestrian>

</configuration>
-->

<net version="1.16" junctionCornerDetail="5" lefthand="true" limitTurnSpeed="5.50" xmlns:xsi="http://www.w3.org/2001/XMLSchema-instance" xsi:noNamespaceSchemaLocation="http://sumo.dlr.de/xsd/net_file.xsd">

    <location netOffset="-369839.22,-153922.98" convBoundary="0.00,0.00,766.65,437.38" origBoundary="103.830015,1.392298,103.836907,1.396251" projParameter="+proj=utm +zone=48 +ellps=WGS84 +datum=WGS84 +units=m +no_defs"/>

    <type id="highway.bridleway" priority="1" numLanes="1" speed="2.78" allow="pedestrian" oneway="1" width="2.00"/>
    <type id="highway.bus_guideway" priority="1" numLanes="1" speed="27.78" allow="bus" oneway="1"/>
    <type id="highway.cycleway" priority="1" numLanes="1" speed="5.56" allow="bicycle" oneway="0" width="1.00"/>
    <type id="highway.footway" priority="1" numLanes="1" speed="2.78" allow="pedestrian" oneway="1" width="2.00"/>
    <type id="highway.ford" priority="1" numLanes="1" speed="2.78" allow="army" oneway="0"/>
    <type id="highway.living_street" priority="2" numLanes="1" speed="2.78" disallow="tram rail_urban rail rail_electric rail_fast ship" oneway="0"/>
    <type id="highway.motorway" priority="14" numLanes="2" speed="39.44" allow="private emergency authority army vip passenger hov taxi bus coach delivery truck trailer motorcycle evehicle custom1 custom2" oneway="1"/>
    <type id="highway.motorway_link" priority="9" numLanes="1" speed="22.22" allow="private emergency authority army vip passenger hov taxi bus coach delivery truck trailer motorcycle evehicle custom1 custom2" oneway="1"/>
    <type id="highway.path" priority="1" numLanes="1" speed="5.56" allow="pedestrian bicycle" oneway="0" width="2.00"/>
    <type id="highway.pedestrian" priority="1" numLanes="1" speed="2.78" allow="pedestrian" oneway="1" width="2.00"/>
    <type id="highway.primary" priority="12" numLanes="2" speed="27.78" disallow="tram rail_urban rail rail_electric rail_fast ship" oneway="0"/>
    <type id="highway.primary_link" priority="7" numLanes="1" speed="22.22" disallow="tram rail_urban rail rail_electric rail_fast ship" oneway="0"/>
    <type id="highway.raceway" priority="15" numLanes="2" speed="83.33" allow="vip" oneway="0"/>
    <type id="highway.residential" priority="3" numLanes="1" speed="13.89" disallow="tram rail_urban rail rail_electric rail_fast ship" oneway="0"/>
    <type id="highway.secondary" priority="11" numLanes="1" speed="27.78" disallow="tram rail_urban rail rail_electric rail_fast ship" oneway="0"/>
    <type id="highway.secondary_link" priority="6" numLanes="1" speed="22.22" disallow="tram rail_urban rail rail_electric rail_fast ship" oneway="0"/>
    <type id="highway.service" priority="1" numLanes="1" speed="5.56" allow="pedestrian delivery bicycle" oneway="0"/>
    <type id="highway.stairs" priority="1" numLanes="1" speed="1.39" allow="pedestrian" oneway="1" width="2.00"/>
    <type id="highway.step" priority="1" numLanes="1" speed="1.39" allow="pedestrian" oneway="1" width="2.00"/>
    <type id="highway.steps" priority="1" numLanes="1" speed="1.39" allow="pedestrian" oneway="1" width="2.00"/>
    <type id="highway.tertiary" priority="10" numLanes="1" speed="22.22" disallow="tram rail_urban rail rail_electric rail_fast ship" oneway="0"/>
    <type id="highway.tertiary_link" priority="5" numLanes="1" speed="22.22" disallow="tram rail_urban rail rail_electric rail_fast ship" oneway="0"/>
    <type id="highway.track" priority="1" numLanes="1" speed="5.56" allow="pedestrian motorcycle moped bicycle" oneway="0"/>
    <type id="highway.trunk" priority="13" numLanes="2" speed="27.78" disallow="pedestrian bicycle tram rail_urban rail rail_electric rail_fast ship" oneway="0"/>
    <type id="highway.trunk_link" priority="8" numLanes="1" speed="22.22" disallow="pedestrian bicycle tram rail_urban rail rail_electric rail_fast ship" oneway="0"/>
    <type id="highway.unclassified" priority="4" numLanes="1" speed="13.89" disallow="tram rail_urban rail rail_electric rail_fast ship" oneway="0"/>
    <type id="highway.unsurfaced" priority="1" numLanes="1" speed="8.33" disallow="tram rail_urban rail rail_electric rail_fast ship" oneway="0"/>
    <type id="railway.highspeed" priority="21" numLanes="1" speed="69.44" allow="rail_fast" oneway="1"/>
    <type id="railway.light_rail" priority="19" numLanes="1" speed="27.78" allow="rail_urban" oneway="1"/>
    <type id="railway.preserved" priority="16" numLanes="1" speed="27.78" allow="rail" oneway="1"/>
    <type id="railway.rail" priority="20" numLanes="1" speed="44.44" allow="rail" oneway="1"/>
    <type id="railway.subway" priority="18" numLanes="1" speed="27.78" allow="rail_urban" oneway="1"/>
    <type id="railway.tram" priority="17" numLanes="1" speed="13.89" allow="tram" oneway="1"/>

    <edge id=":440556692_0" function="internal">
        <lane id=":440556692_0_0" index="0" allow="private emergency authority army vip passenger hov taxi bus coach delivery truck trailer motorcycle evehicle custom1 custom2" speed="13.89" length="15.04" shape="313.45,230.85 317.87,232.55 320.93,234.46 323.39,236.56 326.00,238.83"/>
    </edge>
    <edge id=":440556692_1" function="internal">
        <lane id=":440556692_1_0" index="0" allow="private emergency authority army vip passenger hov taxi bus coach delivery truck trailer motorcycle evehicle custom1 custom2" speed="13.89" length="15.06" shape="313.45,230.85 328.15,234.48"/>
        <lane id=":440556692_1_1" index="1" allow="private emergency authority army vip passenger hov taxi bus coach delivery truck trailer motorcycle evehicle custom1 custom2" speed="13.89" length="15.06" shape="314.36,227.78 328.91,231.37"/>
    </edge>
    <edge id=":440556700_0" function="internal">
        <lane id=":440556700_0_0" index="0" allow="private emergency authority army vip passenger hov taxi bus coach delivery truck trailer motorcycle evehicle custom1 custom2" speed="11.02" length="18.38" shape="330.38,256.86 330.42,261.84 329.26,266.15 326.91,269.78 323.37,272.74"/>
    </edge>
    <edge id=":440556700_1" function="internal">
        <lane id=":440556700_1_0" index="0" allow="bus" speed="7.70" length="17.71" shape="330.38,256.86 331.66,263.41 333.64,267.39 336.32,268.80 339.68,267.63"/>
    </edge>
    <edge id=":440556700_2" function="internal">
        <lane id=":440556700_2_0" index="0" disallow="tram rail_urban rail rail_electric rail_fast ship" speed="19.44" length="17.43" shape="334.39,259.62 330.67,263.02 328.91,266.23 327.14,269.42 323.37,272.74"/>
        <lane id=":440556700_2_1" index="1" disallow="tram rail_urban rail rail_electric rail_fast ship" speed="19.44" length="17.43" shape="336.15,262.29 332.42,265.70 330.65,268.92 328.87,272.11 325.08,275.44"/>
        <lane id=":440556700_2_2" index="2" disallow="tram rail_urban rail rail_electric rail_fast ship" speed="19.44" length="17.43" shape="337.92,264.96 334.17,268.38 332.39,271.61 330.59,274.81 326.79,278.15"/>
    </edge>
    <edge id=":440556700_5" function="internal">
        <lane id=":440556700_5_0" index="0" allow="bus bicycle" speed="3.65" length="4.67" shape="337.92,264.96 337.36,266.29 337.47,267.18 338.24,267.62 339.68,267.63"/>
    </edge>
    <edge id=":440556702_0" function="internal">
        <lane id=":440556702_0_0" index="0" allow="private emergency authority army vip passenger hov taxi bus coach delivery truck trailer motorcycle evehicle custom1 custom2" speed="16.66" length="15.12" shape="521.51,138.83 517.36,141.13 513.88,142.15 510.63,142.53 507.17,142.88"/>
    </edge>
    <edge id=":440556702_1" function="internal">
        <lane id=":440556702_1_0" index="0" disallow="tram rail_urban rail rail_electric rail_fast ship" speed="19.44" length="15.21" shape="521.51,138.83 508.96,147.46"/>
        <lane id=":440556702_1_1" index="1" disallow="tram rail_urban rail rail_electric rail_fast ship" speed="19.44" length="15.21" shape="523.31,141.47 510.77,150.10"/>
        <lane id=":440556702_1_2" index="2" disallow="tram rail_urban rail rail_electric rail_fast ship" speed="19.44" length="15.21" shape="525.11,144.11 512.58,152.74"/>
        <lane id=":440556702_1_3" index="3" disallow="tram rail_urban rail rail_electric rail_fast ship" speed="19.44" length="15.21" shape="526.91,146.76 514.39,155.38"/>
    </edge>
    <edge id=":440556702_5" function="internal">
        <lane id=":440556702_5_0" index="0" allow="bus bicycle" speed="3.65" length="1.44" shape="526.91,146.76 526.37,148.10"/>
    </edge>
    <edge id=":440556702_9" function="internal">
        <lane id=":440556702_9_0" index="0" allow="bus bicycle" speed="3.65" length="3.23" shape="526.37,148.10 526.49,148.98 527.27,149.42 528.72,149.40"/>
    </edge>
    <edge id=":440556702_6" function="internal">
        <lane id=":440556702_6_0" index="0" allow="bus bicycle" speed="19.44" length="15.20" shape="516.19,158.02 528.72,149.40"/>
    </edge>
    <edge id=":440556702_7" function="internal">
        <lane id=":440556702_7_0" index="0" allow="bus" speed="7.68" length="2.12" shape="516.19,158.02 517.39,156.27"/>
    </edge>
    <edge id=":440556702_8" function="internal">
        <lane id=":440556702_8_0" index="0" allow="bus bicycle" speed="3.65" length="1.44" shape="516.19,158.02 516.73,156.68"/>
    </edge>
    <edge id=":440556702_10" function="internal">
        <lane id=":440556702_10_0" index="0" allow="bus" speed="7.68" length="21.98" shape="517.39,156.27 519.55,153.12 518.34,147.84 513.80,143.86 507.17,142.88"/>
    </edge>
    <edge id=":440556702_11" function="internal">
        <lane id=":440556702_11_0" index="0" allow="bus bicycle" speed="3.65" length="3.23" shape="516.73,156.68 516.61,155.79 515.83,155.36 514.39,155.38"/>
    </edge>
    <edge id=":4728331407_0" function="internal">
        <lane id=":4728331407_0_0" index="0" allow="bus bicycle" speed="3.65" length="4.67" shape="759.90,1.36 760.50,0.05 760.42,-0.84 759.66,-1.31 758.22,-1.36"/>
    </edge>
    <edge id=":4728331408_0" function="internal">
        <lane id=":4728331408_0_0" index="0" allow="bus bicycle" speed="3.65" length="4.67" shape="767.51,16.08 768.09,14.76 768.00,13.87 767.24,13.41 765.79,13.38"/>
    </edge>
    <edge id=":4728334075_0" function="internal">
        <lane id=":4728334075_0_0" index="0" disallow="tram rail_urban rail rail_electric rail_fast ship" speed="19.44" length="8.59" shape="625.02,73.84 622.62,74.72 620.70,74.61 618.80,74.53 616.44,75.47"/>
        <lane id=":4728334075_0_1" index="1" disallow="tram rail_urban rail rail_electric rail_fast ship" speed="19.44" length="8.59" shape="626.69,76.58 624.31,77.44 622.41,77.32 620.53,77.22 618.19,78.15"/>
        <lane id=":4728334075_0_2" index="2" disallow="tram rail_urban rail rail_electric rail_fast ship" speed="19.44" length="8.59" shape="628.35,79.31 626.00,80.15 624.12,80.02 622.25,79.92 619.94,80.83"/>
        <lane id=":4728334075_0_3" index="3" disallow="tram rail_urban rail rail_electric rail_fast ship" speed="19.44" length="8.59" shape="628.35,79.31 621.69,83.50"/>
    </edge>
    <edge id=":4728334075_4" function="internal">
        <lane id=":4728334075_4_0" index="0" allow="bus bicycle" speed="19.44" length="7.76" shape="623.44,86.18 630.01,82.05"/>
    </edge>
    <edge id=":4728345976_0" function="internal">
        <lane id=":4728345976_0_0" index="0" allow="private emergency authority army vip passenger hov taxi bus coach delivery truck trailer motorcycle evehicle custom1 custom2" speed="13.89" length="8.21" shape="472.84,145.31 470.44,145.19 468.81,144.73 467.18,144.27 464.77,144.15"/>
        <lane id=":4728345976_0_1" index="1" allow="private emergency authority army vip passenger hov taxi bus coach delivery truck trailer motorcycle evehicle custom1 custom2" speed="13.89" length="8.21" shape="472.84,145.31 470.46,145.69 468.89,146.33 467.32,146.96 464.94,147.34"/>
    </edge>
    <edge id=":6177646422_0" function="internal">
        <lane id=":6177646422_0_0" index="0" allow="bus bicycle" speed="3.65" length="0.14" shape="539.12,156.88 539.06,157.00"/>
    </edge>
    <edge id=":6177646422_4" function="internal">
        <lane id=":6177646422_4_0" index="0" allow="bus bicycle" speed="3.65" length="4.54" shape="539.06,157.00 538.52,158.19 538.61,159.08 539.37,159.55 540.81,159.60"/>
    </edge>
    <edge id=":6177646422_1" function="internal">
        <lane id=":6177646422_1_0" index="0" disallow="tram rail_urban rail rail_electric rail_fast ship" speed="19.44" length="5.63" shape="539.21,162.53 544.20,165.03"/>
        <lane id=":6177646422_1_1" index="1" disallow="tram rail_urban rail rail_electric rail_fast ship" speed="19.44" length="5.63" shape="537.44,159.86 542.50,162.31"/>
        <lane id=":6177646422_1_2" index="2" disallow="tram rail_urban rail rail_electric rail_fast ship" speed="19.44" length="5.63" shape="535.67,157.20 540.81,159.60"/>
    </edge>
    <edge id=":6758627762_0" function="internal">
        <lane id=":6758627762_0_0" index="0" disallow="tram rail_urban rail rail_electric rail_fast ship" speed="19.44" length="8.21" shape="281.11,303.31 278.95,304.38 277.30,304.77 275.65,305.16 273.49,306.23"/>
        <lane id=":6758627762_0_1" index="1" disallow="tram rail_urban rail rail_electric rail_fast ship" speed="19.44" length="8.21" shape="282.82,306.01 280.66,307.08 279.01,307.48 277.36,307.87 275.20,308.93"/>
    </edge>
    <edge id=":cluster_1781541228_1781541231_0" function="internal">
        <lane id=":cluster_1781541228_1781541231_0_0" index="0" disallow="tram rail_urban rail rail_electric rail_fast ship" speed="19.44" length="49.29" shape="395.43,220.83 353.56,246.95"/>
        <lane id=":cluster_1781541228_1781541231_0_1" index="1" disallow="tram rail_urban rail rail_electric rail_fast ship" speed="19.44" length="49.29" shape="397.15,223.53 355.33,249.62"/>
        <lane id=":cluster_1781541228_1781541231_0_2" index="2" disallow="tram rail_urban rail rail_electric rail_fast ship" speed="19.44" length="49.29" shape="398.88,226.23 357.09,252.29"/>
    </edge>
    <edge id=":cluster_1781541228_1781541231_3" function="internal">
        <lane id=":cluster_1781541228_1781541231_3_0" index="0" disallow="tram rail_urban rail rail_electric rail_fast ship" speed="5.96" length="16.11" shape="398.88,226.23 407.55,239.80"/>
    </edge>
    <edge id=":cluster_1781541228_1781541231_4" function="internal">
        <lane id=":cluster_1781541228_1781541231_4_0" index="0" allow="bus bicycle" speed="3.65" length="4.68" shape="398.88,226.23 398.30,227.55 398.39,228.44 399.16,228.90 400.60,228.93"/>
    </edge>
    <edge id=":cluster_1781541228_1781541231_5" function="internal">
        <lane id=":cluster_1781541228_1781541231_5_0" index="0" disallow="tram rail_urban rail rail_electric rail_fast ship" speed="19.44" length="48.98" shape="368.58,269.66 410.99,245.20"/>
        <lane id=":cluster_1781541228_1781541231_5_1" index="1" disallow="tram rail_urban rail rail_electric rail_fast ship" speed="19.44" length="48.98" shape="366.82,266.99 409.27,242.50"/>
    </edge>
    <edge id=":cluster_1781541228_1781541231_7" function="internal">
        <lane id=":cluster_1781541228_1781541231_7_0" index="0" allow="bus bicycle" speed="19.44" length="52.11" shape="358.86,254.95 366.72,252.98 380.89,250.72 396.65,247.46 409.27,242.50"/>
    </edge>
    <edge id=":cluster_1781541228_1781541231_8" function="internal">
        <lane id=":cluster_1781541228_1781541231_8_0" index="0" allow="bus bicycle" speed="19.44" length="49.19" shape="358.86,254.95 400.60,228.93"/>
    </edge>
    <edge id=":cluster_1781541228_1781541231_9" function="internal">
        <lane id=":cluster_1781541228_1781541231_9_0" index="0" allow="bus bicycle" speed="3.65" length="1.44" shape="358.86,254.95 359.42,253.63"/>
    </edge>
    <edge id=":cluster_1781541228_1781541231_12" function="internal">
        <lane id=":cluster_1781541228_1781541231_12_0" index="0" allow="bus bicycle" speed="3.65" length="3.23" shape="359.42,253.63 359.31,252.74 358.54,252.29 357.09,252.29"/>
    </edge>
    <edge id=":cluster_1781541228_1781541231_10" function="internal">
        <lane id=":cluster_1781541228_1781541231_10_0" index="0" allow="private emergency authority army vip passenger hov taxi bus coach delivery truck trailer motorcycle evehicle custom1 custom2" speed="16.66" length="58.17" shape="352.37,240.75 371.58,245.14 387.47,246.90 400.03,246.02 409.27,242.50"/>
    </edge>
    <edge id=":cluster_1781541228_1781541231_11" function="internal">
        <lane id=":cluster_1781541228_1781541231_11_0" index="0" allow="bus" speed="16.66" length="49.91" shape="352.79,237.55 364.39,239.36 376.22,238.53 388.29,235.05 400.60,228.93"/>
    </edge>
    <edge id=":cluster_244893820_244893866_0" function="internal">
        <lane id=":cluster_244893820_244893866_0_0" index="0" disallow="tram rail_urban rail rail_electric rail_fast ship" speed="19.44" length="4.07" shape="492.32,158.85 492.13,162.83"/>
        <lane id=":cluster_244893820_244893866_0_1" index="1" disallow="tram rail_urban rail rail_electric rail_fast ship" speed="19.44" length="4.07" shape="494.09,161.51 493.77,165.57"/>
        <lane id=":cluster_244893820_244893866_0_2" index="2" disallow="tram rail_urban rail rail_electric rail_fast ship" speed="19.44" length="4.07" shape="495.86,164.18 495.42,168.32"/>
    </edge>
    <edge id=":cluster_244893820_244893866_3" function="internal">
        <lane id=":cluster_244893820_244893866_3_0" index="0" disallow="tram rail_urban rail rail_electric rail_fast ship" speed="5.42" length="11.38" shape="497.63,166.85 503.92,176.33"/>
    </edge>
    <edge id=":cluster_244893820_244893866_4" function="internal">
        <lane id=":cluster_244893820_244893866_4_0" index="0" allow="bus bicycle" speed="3.65" length="4.67" shape="497.63,166.85 497.07,168.18 497.18,169.07 497.96,169.51 499.40,169.51"/>
    </edge>
    <edge id=":cluster_244893820_244893866_11" function="internal">
        <lane id=":cluster_244893820_244893866_11_0" index="0" disallow="tram rail_urban rail rail_electric rail_fast ship" speed="5.42" length="1.61" shape="503.92,176.33 504.81,177.67"/>
    </edge>
    <edge id=":cluster_244893820_244893866_5" function="internal">
        <lane id=":cluster_244893820_244893866_5_0" index="0" disallow="tram rail_urban rail rail_electric rail_fast ship" speed="19.44" length="3.39" shape="505.38,184.92 508.35,183.00"/>
        <lane id=":cluster_244893820_244893866_5_1" index="1" disallow="tram rail_urban rail rail_electric rail_fast ship" speed="19.44" length="3.39" shape="503.73,182.17 506.58,180.34"/>
        <lane id=":cluster_244893820_244893866_5_2" index="2" disallow="tram rail_urban rail rail_electric rail_fast ship" speed="19.44" length="3.39" shape="502.08,179.43 504.81,177.67"/>
    </edge>
    <edge id=":cluster_244893820_244893866_8" function="internal">
        <lane id=":cluster_244893820_244893866_8_0" index="0" allow="bus bicycle" speed="19.44" length="13.29" shape="497.06,171.06 506.58,180.34"/>
    </edge>
    <edge id=":cluster_244893820_244893866_9" function="internal">
        <lane id=":cluster_244893820_244893866_9_0" index="0" allow="bus bicycle" speed="19.44" length="2.80" shape="497.06,171.06 499.40,169.51"/>
    </edge>
    <edge id=":cluster_244893820_244893866_10" function="internal">
        <lane id=":cluster_244893820_244893866_10_0" index="0" allow="bus bicycle" speed="3.65" length="4.67" shape="497.06,171.06 497.68,169.76 497.61,168.86 496.86,168.38 495.42,168.32"/>
    </edge>

    <edge id="-479786270" from="4728334075" to="4728331407" name="Lentor Avenue" priority="12" type="highway.primary" shape="625.85,82.70 689.81,43.85 728.15,19.14 759.06,0.00">
        <lane id="-479786270_0" index="0" allow="bus bicycle" speed="19.44" length="152.92" shape="630.01,82.05 690.66,45.21 729.00,20.49 759.90,1.36">
            <param key="origId" value="479786270"/>
        </lane>
    </edge>
    <edge id="-479788160" from="440556702" to="4728334075" name="Lentor Avenue" priority="12" type="highway.primary" shape="543.32,137.51 574.46,116.28 625.85,82.70">
        <lane id="-479788160_0" index="0" allow="bus bicycle" speed="19.44" length="113.89" shape="528.72,149.40 575.35,117.61 623.44,86.18">
            <param key="origId" value="479788160"/>
        </lane>
    </edge>
    <edge id="-633590154" from="4728331408" to="6177646422" name="Lentor Avenue" priority="12" type="highway.primary" shape="766.65,14.73 699.88,56.96 582.99,131.42 538.71,159.02">
        <lane id="-633590154_0" index="0" allow="bus bicycle" speed="19.44" length="268.28" shape="765.79,13.38 699.02,55.61 582.14,130.07 539.12,156.88">
            <param key="origId" value="633590154"/>
        </lane>
    </edge>
    <edge id="-633591044" from="cluster_244893820_244893866" to="440556702" name="Lentor Avenue" priority="12" type="highway.primary" shape="496.82,169.34 543.32,137.51">
        <lane id="-633591044_0" index="0" allow="bus bicycle" speed="19.44" length="20.35" shape="499.40,169.51 516.19,158.02">
            <param key="origId" value="633591044"/>
        </lane>
        <param key="origFrom" value="244893866"/>
    </edge>
    <edge id="-633593798" from="440556700" to="cluster_1781541228_1781541231" name="Lentor Avenue" priority="12" type="highway.primary" shape="322.12,277.32 374.21,242.89">
        <lane id="-633593798_0" index="0" allow="bus bicycle" speed="19.44" length="22.99" shape="339.68,267.63 358.86,254.95">
            <param key="origId" value="633593798"/>
        </lane>
        <param key="origTo" value="1781541228"/>
    </edge>
    <edge id="-655507791" from="cluster_1781541228_1781541231" to="cluster_244893820_244893866" name="Lentor Avenue" priority="12" type="highway.primary" shape="374.21,242.89 496.82,169.34">
        <lane id="-655507791_0" index="0" allow="bus bicycle" speed="19.44" length="112.49" shape="400.60,228.93 497.06,171.06">
            <param key="origId" value="655507791"/>
        </lane>
        <param key="origFrom" value="1781541228"/>
        <param key="origTo" value="244893866"/>
    </edge>
    <edge id="37583811" from="148992748" to="440556692" name="Seletar Expressway" priority="9" type="highway.motorway_link" spreadType="center" shape="31.86,132.07 40.62,140.23 43.94,142.30 46.81,143.56 51.07,145.09 87.56,157.33 97.63,161.06 165.46,182.74 220.99,201.67 282.43,219.92 314.26,229.42">
        <lane id="37583811_0" index="0" allow="private emergency authority army vip passenger hov taxi bus coach delivery truck trailer motorcycle evehicle custom1 custom2" speed="13.89" length="299.59" shape="30.77,133.24 39.64,141.51 43.19,143.72 46.22,145.05 50.55,146.60 87.03,158.84 97.11,162.57 164.96,184.26 220.50,203.19 281.97,221.45 313.45,230.85">
            <param key="origId" value="37583811 655503139"/>
        </lane>
        <lane id="37583811_1" index="1" allow="private emergency authority army vip passenger hov taxi bus coach delivery truck trailer motorcycle evehicle custom1 custom2" speed="13.89" length="299.59" shape="32.95,130.90 41.60,138.95 44.69,140.88 47.40,142.07 51.59,143.58 88.09,155.82 98.15,159.55 165.96,181.22 221.48,200.15 282.89,218.39 314.36,227.78">
            <param key="origId" value="37583811 655503139"/>
        </lane>
    </edge>
    <edge id="37583812" from="440556692" to="440556700" priority="9" type="highway.motorway_link" spreadType="center" shape="314.26,229.42 328.45,240.79 330.70,259.57 330.60,260.80 322.12,277.32">
        <lane id="37583812_0" index="0" allow="private emergency authority army vip passenger hov taxi bus coach delivery truck trailer motorcycle evehicle custom1 custom2" speed="13.89" length="19.33" shape="326.00,238.83 328.45,240.79 330.38,256.86">
            <param key="origId" value="37583812"/>
        </lane>
    </edge>
    <edge id="37583813" from="244893891" to="244893907" name="Lentor Interchange" priority="9" type="highway.motorway_link" spreadType="center" shape="650.61,248.52 614.93,236.05 581.00,219.88 548.71,200.05 508.31,169.19 483.76,146.23 448.76,123.08 428.81,114.63 408.19,108.80 384.05,107.37 360.75,109.69 329.55,118.62 289.60,132.47 260.31,159.18 222.39,221.22 189.97,272.58 166.91,298.36 86.10,356.60 52.80,382.11 0.00,437.38">
        <lane id="37583813_0" index="0" allow="private emergency authority army vip passenger hov taxi bus coach delivery truck trailer motorcycle evehicle custom1 custom2" speed="13.89" length="830.79" shape="651.14,247.01 615.54,234.57 581.76,218.47 549.62,198.73 509.34,167.97 484.75,144.97 449.52,121.66 429.34,113.12 408.46,107.21 384.02,105.77 360.45,108.11 329.07,117.09 288.77,131.07 259.06,158.15 221.03,220.38 188.69,271.61 165.83,297.16 85.15,355.32 51.73,380.92 -1.16,436.27">
            <param key="origId" value="37583813 780755652 780755653"/>
        </lane>
        <lane id="37583813_1" index="1" allow="private emergency authority army vip passenger hov taxi bus coach delivery truck trailer motorcycle evehicle custom1 custom2" speed="13.89" length="830.79" shape="650.08,250.03 614.32,237.53 580.24,221.29 547.80,201.37 507.28,170.41 482.77,147.49 448.00,124.50 428.28,116.14 407.92,110.39 384.08,108.97 361.05,111.27 330.03,120.15 290.43,133.87 261.56,160.21 223.75,222.06 191.25,273.55 167.99,299.56 87.05,357.88 53.87,383.30 1.16,438.49">
            <param key="origId" value="37583813 780755652 780755653"/>
        </lane>
    </edge>
    <edge id="37583816" from="440556702" to="4728345976" priority="9" type="highway.motorway_link" spreadType="center" shape="543.32,137.51 504.48,143.28 501.06,143.79 468.85,145.53">
        <lane id="37583816_0" index="0" allow="private emergency authority army vip passenger hov taxi bus coach delivery truck trailer motorcycle evehicle custom1 custom2" speed="13.89" length="34.43" shape="507.17,142.88 504.48,143.28 501.06,143.79 472.84,145.31">
            <param key="origId" value="37583816"/>
        </lane>
    </edge>
    <edge id="37583817" from="148981962" to="440556707" name="Seletar Expressway" priority="14" type="highway.motorway" spreadType="center" shape="649.20,267.12 196.43,154.24 104.28,127.31 69.78,118.82 47.07,112.77">
        <lane id="37583817_0" index="0" allow="private emergency authority army vip passenger hov taxi bus coach delivery truck trailer motorcycle evehicle custom1 custom2" speed="25.00" length="595.50" shape="650.36,262.46 197.68,149.61 105.53,122.67 73.60,114.82">
            <param key="origId" value="37583817 37583818"/>
        </lane>
        <lane id="37583817_1" index="1" allow="private emergency authority army vip passenger hov taxi bus coach delivery truck trailer motorcycle evehicle custom1 custom2" speed="25.00" length="595.50" shape="649.59,265.57 196.85,152.70 104.70,125.76 72.78,117.91">
            <param key="origId" value="37583817 37583818"/>
        </lane>
        <lane id="37583817_2" index="2" allow="private emergency authority army vip passenger hov taxi bus coach delivery truck trailer motorcycle evehicle custom1 custom2" speed="25.00" length="595.50" shape="648.81,268.67 196.01,155.78 103.86,128.86 71.96,121.00">
            <param key="origId" value="37583817 37583818"/>
        </lane>
        <lane id="37583817_3" index="3" allow="private emergency authority army vip passenger hov taxi bus coach delivery truck trailer motorcycle evehicle custom1 custom2" speed="25.00" length="595.50" shape="648.04,271.78 195.18,158.87 103.03,131.95 71.13,124.10">
            <param key="origId" value="37583817 37583818"/>
        </lane>
        <param key="ref" value="SLE"/>
    </edge>
    <edge id="37583822" from="244893847" to="148992984" priority="9" type="highway.motorway_link" spreadType="center" shape="232.63,360.82 318.74,306.73 366.02,277.57 386.17,265.99 404.09,256.97 421.74,255.35 448.50,257.63 507.41,270.36 640.65,297.53 700.76,309.73 711.48,311.29 735.87,313.53">
        <lane id="37583822_0" index="0" allow="private emergency authority army vip passenger hov taxi bus coach delivery truck trailer motorcycle evehicle custom1 custom2" speed="13.89" length="538.03" shape="233.48,362.17 319.59,308.09 366.84,278.94 386.93,267.40 404.54,258.54 421.75,256.96 448.26,259.22 507.08,271.93 640.33,299.10 700.49,311.31 711.29,312.88 735.72,315.12">
            <param key="origId" value="37583822 37583823"/>
        </lane>
        <lane id="37583822_1" index="1" allow="private emergency authority army vip passenger hov taxi bus coach delivery truck trailer motorcycle evehicle custom1 custom2" speed="13.89" length="538.03" shape="231.78,359.47 317.89,305.37 365.20,276.20 385.41,264.58 403.64,255.40 421.73,253.74 448.74,256.04 507.74,268.79 640.97,295.96 701.03,308.15 711.67,309.70 736.02,311.94">
            <param key="origId" value="37583822 37583823"/>
        </lane>