<?xml version="1.0" encoding="UTF-8"?>

<!-- generated on 2023-07-19 15:31:32 by Eclipse SUMO netconvert Version 1.17.0
<configuration xmlns:xsi="http://www.w3.org/2001/XMLSchema-instance" xsi:noNamespaceSchemaLocation="http://sumo.dlr.de/xsd/netconvertConfiguration.xsd">

    <input>
        <sumo-net-file value="osm.net.xml.gz"/>
    </input>

    <output>
        <output-file value="osm.net.xml"/>
        <output.street-names value="true"/>
    </output>

    <processing>
        <geometry.min-radius.fix.railways value="false"/>
        <geometry.max-grade.fix value="false"/>
        <offset.disable-normalization value="true"/>
        <lefthand value="1"/>
    </processing>

    <junctions>
        <no-turnarounds value="true"/>
        <junctions.corner-detail value="5"/>
        <junctions.limit-turn-speed value="5.50"/>
        <rectangular-lane-cut value="0"/>
    </junctions>

    <pedestrian>
        <walkingareas value="0"/>
    </pedestrian>

</configuration>
-->

<net version="1.16" junctionCornerDetail="5" lefthand="true" limitTurnSpeed="5.50" xmlns:xsi="http://www.w3.org/2001/XMLSchema-instance" xsi:noNamespaceSchemaLocation="http://sumo.dlr.de/xsd/net_file.xsd">

    <location netOffset="-363681.57,-151796.61" convBoundary="0.00,0.00,452.43,673.50" origBoundary="103.774684,1.373035,103.778750,1.379126" projParameter="+proj=utm +zone=48 +ellps=WGS84 +datum=WGS84 +units=m +no_defs"/>

    <type id="highway.bridleway" priority="1" numLanes="1" speed="2.78" allow="pedestrian" oneway="1" width="2.00"/>
    <type id="highway.bus_guideway" priority="1" numLanes="1" speed="27.78" allow="bus" oneway="1"/>
    <type id="highway.cycleway" priority="1" numLanes="1" speed="5.56" allow="bicycle" oneway="0" width="1.00"/>
    <type id="highway.footway" priority="1" numLanes="1" speed="2.78" allow="pedestrian" oneway="1" width="2.00"/>
    <type id="highway.ford" priority="1" numLanes="1" speed="2.78" allow="army" oneway="0"/>
    <type id="highway.living_street" priority="2" numLanes="1" speed="2.78" disallow="tram rail_urban rail rail_electric rail_fast ship" oneway="0"/>
    <type id="highway.motorway" priority="14" numLanes="2" speed="39.44" allow="private emergency authority army vip passenger hov taxi bus coach delivery truck trailer motorcycle evehicle custom1 custom2" oneway="1"/>
    <type id="highway.motorway_link" priority="9" numLanes="1" speed="22.22" allow="private emergency authority army vip passenger hov taxi bus coach delivery truck trailer motorcycle evehicle custom1 custom2" oneway="1"/>
    <type id="highway.path" priority="1" numLanes="1" speed="5.56" allow="pedestrian bicycle" oneway="0" width="2.00"/>
    <type id="highway.pedestrian" priority="1" numLanes="1" speed="2.78" allow="pedestrian" oneway="1" width="2.00"/>
    <type id="highway.primary" priority="12" numLanes="2" speed="27.78" disallow="tram rail_urban rail rail_electric rail_fast ship" oneway="0"/>
    <type id="highway.primary_link" priority="7" numLanes="1" speed="22.22" disallow="tram rail_urban rail rail_electric rail_fast ship" oneway="0"/>
    <type id="highway.raceway" priority="15" numLanes="2" speed="83.33" allow="vip" oneway="0"/>
    <type id="highway.residential" priority="3" numLanes="1" speed="13.89" disallow="tram rail_urban rail rail_electric rail_fast ship" oneway="0"/>
    <type id="highway.secondary" priority="11" numLanes="1" speed="27.78" disallow="tram rail_urban rail rail_electric rail_fast ship" oneway="0"/>
    <type id="highway.secondary_link" priority="6" numLanes="1" speed="22.22" disallow="tram rail_urban rail rail_electric rail_fast ship" oneway="0"/>
    <type id="highway.service" priority="1" numLanes="1" speed="5.56" allow="pedestrian delivery bicycle" oneway="0"/>
    <type id="highway.stairs" priority="1" numLanes="1" speed="1.39" allow="pedestrian" oneway="1" width="2.00"/>
    <type id="highway.step" priority="1" numLanes="1" speed="1.39" allow="pedestrian" oneway="1" width="2.00"/>
    <type id="highway.steps" priority="1" numLanes="1" speed="1.39" allow="pedestrian" oneway="1" width="2.00"/>
    <type id="highway.tertiary" priority="10" numLanes="1" speed="22.22" disallow="tram rail_urban rail rail_electric rail_fast ship" oneway="0"/>
    <type id="highway.tertiary_link" priority="5" numLanes="1" speed="22.22" disallow="tram rail_urban rail rail_electric rail_fast ship" oneway="0"/>
    <type id="highway.track" priority="1" numLanes="1" speed="5.56" allow="pedestrian motorcycle moped bicycle" oneway="0"/>
    <type id="highway.trunk" priority="13" numLanes="2" speed="27.78" disallow="pedestrian bicycle tram rail_urban rail rail_electric rail_fast ship" oneway="0"/>
    <type id="highway.trunk_link" priority="8" numLanes="1" speed="22.22" disallow="pedestrian bicycle tram rail_urban rail rail_electric rail_fast ship" oneway="0"/>
    <type id="highway.unclassified" priority="4" numLanes="1" speed="13.89" disallow="tram rail_urban rail rail_electric rail_fast ship" oneway="0"/>
    <type id="highway.unsurfaced" priority="1" numLanes="1" speed="8.33" disallow="tram rail_urban rail rail_electric rail_fast ship" oneway="0"/>
    <type id="railway.highspeed" priority="21" numLanes="1" speed="69.44" allow="rail_fast" oneway="1"/>
    <type id="railway.light_rail" priority="19" numLanes="1" speed="27.78" allow="rail_urban" oneway="1"/>
    <type id="railway.preserved" priority="16" numLanes="1" speed="27.78" allow="rail" oneway="1"/>
    <type id="railway.rail" priority="20" numLanes="1" speed="44.44" allow="rail" oneway="1"/>
    <type id="railway.subway" priority="18" numLanes="1" speed="27.78" allow="rail_urban" oneway="1"/>
    <type id="railway.tram" priority="17" numLanes="1" speed="13.89" allow="tram" oneway="1"/>

    <edge id=":1483496599_0" function="internal">
        <lane id=":1483496599_0_0" index="0" allow="private emergency authority army vip passenger hov taxi bus coach delivery truck trailer motorcycle evehicle custom1 custom2" speed="13.89" length="0.35" shape="220.49,259.77 220.39,259.81 220.32,259.83 220.25,259.84 220.14,259.85"/>
    </edge>
    <edge id=":1483501016_0" function="internal">
        <lane id=":1483501016_0_0" index="0" allow="private emergency authority army vip passenger hov taxi bus coach delivery truck trailer motorcycle evehicle custom1 custom2" speed="13.89" length="8.98" shape="341.59,165.80 343.26,163.96 344.49,162.77 345.86,161.74 347.94,160.37"/>
        <lane id=":1483501016_0_1" index="1" allow="private emergency authority army vip passenger hov taxi bus coach delivery truck trailer motorcycle evehicle custom1 custom2" speed="13.89" length="8.98" shape="341.59,165.80 343.07,163.42 343.59,161.39 344.26,159.53 346.20,157.68"/>
    </edge>
    <edge id=":158003665_0" function="internal">
        <lane id=":158003665_0_0" index="0" allow="private emergency authority army vip passenger hov taxi bus coach delivery truck trailer motorcycle evehicle custom1 custom2" speed="19.45" length="2.99" shape="277.79,331.27 278.63,328.40"/>
    </edge>
    <edge id=":158003665_1" function="internal">
        <lane id=":158003665_1_0" index="0" allow="private emergency authority army vip passenger hov taxi bus coach delivery truck trailer motorcycle evehicle custom1 custom2" speed="25.00" length="3.00" shape="274.72,330.37 275.50,327.48"/>
        <lane id=":158003665_1_1" index="1" allow="private emergency authority army vip passenger hov taxi bus coach delivery truck trailer motorcycle evehicle custom1 custom2" speed="25.00" length="3.00" shape="271.65,329.47 272.43,326.57"/>
        <lane id=":158003665_1_2" index="2" allow="private emergency authority army vip passenger hov taxi bus coach delivery truck trailer motorcycle evehicle custom1 custom2" speed="25.00" length="3.00" shape="268.58,328.57 269.36,325.66"/>
    </edge>
    <edge id=":236676663_0" function="internal">
        <lane id=":236676663_0_0" index="0" allow="private emergency authority army vip passenger hov taxi bus coach delivery truck trailer motorcycle evehicle custom1 custom2" speed="15.28" length="6.73" shape="195.65,262.59 188.99,263.56"/>
    </edge>
    <edge id=":236676663_1" function="internal">
        <lane id=":236676663_1_0" index="0" allow="private emergency authority army vip passenger hov taxi bus coach delivery truck trailer motorcycle evehicle custom1 custom2" speed="15.28" length="6.78" shape="196.03,265.87 189.25,266.75"/>
        <lane id=":236676663_1_1" index="1" allow="private emergency authority army vip passenger hov taxi bus coach delivery truck trailer motorcycle evehicle custom1 custom2" speed="15.28" length="6.78" shape="196.18,269.07 189.52,269.94"/>
    </edge>
    <edge id=":236677083_0" function="internal">
        <lane id=":236677083_0_0" index="0" allow="private emergency authority army vip passenger hov taxi bus coach delivery truck trailer motorcycle evehicle custom1 custom2" speed="13.89" length="0.27" shape="219.79,264.73 219.56,264.75"/>
        <lane id=":236677083_0_1" index="1" allow="private emergency authority army vip passenger hov taxi bus coach delivery truck trailer motorcycle evehicle custom1 custom2" speed="13.89" length="0.27" shape="220.02,267.93 219.71,267.94"/>
    </edge>
    <edge id=":236677603_0" function="internal">
        <lane id=":236677603_0_0" index="0" allow="private emergency authority army vip passenger hov taxi bus coach delivery truck trailer motorcycle evehicle custom1 custom2" speed="13.89" length="0.10" shape="320.62,206.54 320.62,206.54"/>
    </edge>
    <edge id=":5227310615_0" function="internal">
        <lane id=":5227310615_0_0" index="0" allow="private emergency authority army vip passenger hov taxi bus coach delivery truck trailer motorcycle evehicle custom1 custom2" speed="13.89" length="9.47" shape="384.33,102.34 382.95,100.07 382.77,98.12 382.76,96.04 381.87,93.42"/>
    </edge>
    <edge id=":6072655126_0" function="internal">
        <lane id=":6072655126_0_0" index="0" allow="private emergency authority army vip passenger hov taxi bus coach delivery truck trailer motorcycle evehicle custom1 custom2" speed="13.89" length="0.10" shape="287.01,300.03 287.01,300.03"/>
    </edge>
    <edge id=":6092778400_0" function="internal">
        <lane id=":6092778400_0_0" index="0" allow="private emergency authority army vip passenger hov taxi bus coach delivery truck trailer motorcycle evehicle custom1 custom2" speed="25.00" length="8.13" shape="270.82,344.17 271.90,341.98 273.34,340.82 274.81,339.68 275.96,337.50"/>
        <lane id=":6092778400_0_1" index="1" allow="private emergency authority army vip passenger hov taxi bus coach delivery truck trailer motorcycle evehicle custom1 custom2" speed="25.00" length="8.13" shape="270.82,344.17 272.89,336.60"/>
        <lane id=":6092778400_0_2" index="2" allow="private emergency authority army vip passenger hov taxi bus coach delivery truck trailer motorcycle evehicle custom1 custom2" speed="25.00" length="8.13" shape="267.72,343.38 269.82,335.70"/>
        <lane id=":6092778400_0_3" index="3" allow="private emergency authority army vip passenger hov taxi bus coach delivery truck trailer motorcycle evehicle custom1 custom2" speed="25.00" length="8.13" shape="264.62,342.59 266.75,334.80"/>
    </edge>

    <edge id="135028070" from="1483501016" to="236677083" priority="9" type="highway.motorway_link" spreadType="center" shape="348.43,158.14 365.94,146.80 379.76,143.05 396.06,143.50 410.25,148.34 425.74,159.64 435.37,173.06 439.18,183.94 440.36,195.60 438.20,207.63 434.68,218.00 426.78,230.64 416.35,239.59 406.52,245.17 394.63,250.54 374.56,254.98 342.77,257.43 219.77,266.34">
        <lane id="135028070_0" index="0" allow="private emergency authority army vip passenger hov taxi bus coach delivery truck trailer motorcycle evehicle custom1 custom2" speed="13.89" length="378.84" shape="347.94,160.37 366.60,148.28 379.95,144.66 395.77,145.09 409.50,149.78 424.59,160.78 433.94,173.81 437.61,184.29 438.75,195.54 436.65,207.23 433.22,217.31 425.55,229.58 415.43,238.27 405.79,243.74 394.12,249.01 374.32,253.39 342.65,255.83 219.79,264.73">
            <param key="origId" value="135028070"/>
        </lane>
        <lane id="135028070_1" index="1" allow="private emergency authority army vip passenger hov taxi bus coach delivery truck trailer motorcycle evehicle custom1 custom2" speed="13.89" length="378.84" shape="346.20,157.68 365.28,145.32 379.57,141.44 396.35,141.91 411.00,146.90 426.89,158.50 436.80,172.31 440.75,183.59 441.97,195.66 439.75,208.03 436.14,218.69 428.01,231.70 417.27,240.91 407.25,246.60 395.14,252.07 374.80,256.57 342.89,259.03 220.02,267.93">
            <param key="origId" value="135028070"/>
        </lane>
    </edge>
    <edge id="135030046" from="236677280" to="5227310615" priority="9" type="highway.motorway_link" spreadType="center" shape="151.57,283.12 220.14,277.87 311.11,272.09 341.52,270.00 378.18,266.78 397.06,262.91 413.50,256.67 427.39,247.70 436.31,239.11 445.92,223.89 450.80,210.45 452.43,195.41 450.60,181.83 446.19,168.60 433.42,149.30 398.80,115.93 387.20,103.13">
        <lane id="135030046_0" index="0" allow="private emergency authority army vip passenger hov taxi bus coach delivery truck trailer motorcycle evehicle custom1 custom2" speed="13.89" length="433.60" shape="177.09,282.77 220.25,279.47 311.22,273.69 341.64,271.60 378.41,268.37 397.51,264.45 414.23,258.11 428.39,248.96 437.56,240.13 447.37,224.60 452.37,210.81 454.04,195.39 452.17,181.47 447.64,167.89 434.66,148.27 399.95,114.82 386.70,100.20">
            <param key="origId" value="135030046 135030049 75525467"/>
        </lane>
        <lane id="135030046_1" index="1" allow="private emergency authority army vip passenger hov taxi bus coach delivery truck trailer motorcycle evehicle custom1 custom2" speed="13.89" length="433.60" shape="176.84,279.58 220.03,276.27 311.00,270.49 341.40,268.40 377.95,265.19 396.61,261.37 412.77,255.23 426.39,246.44 435.06,238.09 444.47,223.18 449.23,210.09 450.82,195.43 449.03,182.19 444.74,169.31 432.18,150.33 397.65,117.04 384.33,102.34">
            <param key="origId" value="135030046 135030049 75525467"/>
        </lane>
    </edge>
    <edge id="135030057" from="1483496599" to="236676663" name="Bukit Timah Expressway" priority="9" type="highway.motorway_link" spreadType="center" shape="220.32,259.83 194.33,262.74 158.97,269.24">
        <lane id="135030057_0" index="0" allow="private emergency authority army vip passenger hov taxi bus coach delivery truck trailer motorcycle evehicle custom1 custom2" speed="13.89" length="24.64" shape="220.14,259.85 195.65,262.59">
            <param key="origId" value="135030057"/>
        </lane>
    </edge>
    <edge id="135030061" from="236677280" to="158015739" priority="9" type="highway.motorway_link" spreadType="center" shape="151.57,283.12 173.20,285.59 187.36,288.55 199.54,293.20 207.27,297.61 217.71,309.82 222.70,319.80 226.21,330.48 227.34,342.48 226.36,354.51 211.92,424.24 187.06,525.90 177.01,597.33">
        <lane id="135030061_0" index="0" allow="private emergency authority army vip passenger hov taxi bus coach delivery truck trailer motorcycle evehicle custom1 custom2" speed="13.89" length="301.62" shape="177.00,286.38 187.36,288.55 199.54,293.20 207.27,297.61 217.71,309.82 222.70,319.80 226.21,330.48 227.34,342.48 226.36,354.51 211.92,424.24 187.06,525.90 182.79,556.25">
            <param key="origId" value="135030061 135030062 135028074 135028072"/>
        </lane>
    </edge>
    <edge id="21962132" from="236677083" to="236676663" name="Bukit Timah Expressway" priority="9" type="highway.motorway_link" spreadType="center">
        <lane id="21962132_0" index="0" allow="private emergency authority army vip passenger hov taxi bus coach delivery truck trailer motorcycle evehicle custom1 custom2" speed="13.89" length="23.56" shape="219.56,264.75 196.03,265.87">
            <param key="origId" value="21962132"/>
        </lane>
        <lane id="21962132_1" index="1" allow="private emergency authority army vip passenger hov taxi bus coach delivery truck trailer motorcycle evehicle custom1 custom2" speed="13.89" length="23.56" shape="219.71,267.94 196.18,269.07">
            <param key="origId" value="21962132"/>
        </lane>
    </edge>
    <edge id="21962141" from="158016356" to="1483496599" priority="9" type="highway.motorway_link" spreadType="center" shape="336.60,35.54 331.24,40.62 328.25,44.33 326.70,46.70 302.32,109.88 284.35,159.13 261.57,222.86 256.71,232.84 250.69,241.41 241.01,250.30 233.29,255.35 220.32,259.83">
        <lane id="21962141_0" index="0" allow="private emergency authority army vip passenger hov taxi bus coach delivery truck trailer motorcycle evehicle custom1 custom2" speed="13.89" length="244.13" shape="326.27,47.81 302.32,109.88 284.35,159.13 261.57,222.86 256.71,232.84 250.69,241.41 241.01,250.30 233.29,255.35 220.49,259.77">
            <param key="origId" value="21962141"/>
        </lane>
    </edge>
    <edge id="21962145" from="6072655126" to="236677603" priority="9" type="highway.motorway_link" spreadType="center">
        <lane id="21962145_0" index="0" allow="private emergency authority army vip passenger hov taxi bus coach delivery truck trailer motorcycle evehicle custom1 custom2" speed="13.89" length="99.35" shape="287.01,300.03 320.62,206.54">
            <param key="origId" value="21962145"/>
        </lane>
    </edge>
    <edge id="641243927" from="158003602" to="6092778400" name="Bukit Timah Expressway" priority="14" type="highway.motorway" spreadType="center" shape="176.97,673.50 201.72,583.94 215.71,533.92 243.76,431.43 245.88,423.27 256.91,385.76 268.71,339.51">
        <lane id="641243927_0" index="0" allow="private emergency authority army vip passenger hov taxi bus coach delivery truck trailer motorcycle evehicle custom1 custom2" speed="25.00" length="342.38" shape="180.05,674.35 204.80,584.80 218.79,534.77 246.85,432.25 248.96,424.12 260.00,386.61 270.82,344.17">
            <param key="origId" value="641243927 135028063 632182030 135028058"/>
        </lane>
        <lane id="641243927_1" index="1" allow="private emergency authority army vip passenger hov taxi bus coach delivery truck trailer motorcycle evehicle custom1 custom2" speed="25.00" length="342.38" shape="176.97,673.50 201.72,583.94 215.71,533.92 243.76,431.43 245.88,423.27 256.91,385.76 267.72,343.38">
            <param key="origId" value="641243927 135028063 632182030 135028058"/>
        </lane>
        <lane id="641243927_2" index="2" allow="private emergency authority army vip passenger hov taxi bus coach delivery truck trailer motorcycle evehicle custom1 custom2" speed="25.00" length="342.38" shape="173.89,672.65 198.64,583.08 212.63,533.07 240.67,430.61 242.80,422.42 253.82,384.91 264.62,342.59">
            <param key="origId" value="641243927 135028063 632182030 135028058"/>
        </lane>
        <param key="ref" value="BKE"/>
    </edge>
    <edge id="649157284" from="6092778400" to="158003665" name="Bukit Timah Expressway" priority="14" type="highway.motorway" spreadType="center" shape="270.24,339.96 273.60,328.51">
        <lane id="649157284_0" index="0" allow="private emergency authority army vip passenger hov taxi bus coach delivery truck trailer motorcycle evehicle custom1 custom2" speed="25.00" length="6.49" shape="275.96,337.50 277.79,331.27">
            <param key="origId" value="649157284"/>
        </lane>
        <lane id="649157284_1" index="1" allow="private emergency authority army vip passenger hov taxi bus coach delivery truck trailer motorcycle evehicle custom1 custom2" speed="25.00" length="6.49" shape="272.89,336.60 274.72,330.37">
            <param key="origId" value="649157284"/>
        </lane>
        <lane id="649157284_2" index="2" allow="private emergency authority army vip passenger hov taxi bus coach delivery truck trailer motorcycle evehicle custom1 custom2" speed="25.00" length="6.49" shape="269.82,335.70 271.65,329.47">
            <param key="origId" value="649157284"/>
        </lane>
        <lane id="649157284_3" index="3" allow="private emergency authority army vip passenger hov taxi bus coach delivery truck trailer motorcycle evehicle custom1 custom2" speed="25.00" length="6.49" shape="266.75,334.80 268.58,328.57">
            <param key="origId" value="649157284"/>
        </lane>
        <param key="ref" value="BKE"/>
    </edge>
    <edge id="715271352" from="5227310615" to="236689176" priority="9" type="highway.motorway_link" spreadType="center" shape="387.20,103.13 378.63,87.51 373.73,71.88 371.94,55.32 373.67,28.50 380.37,1.46">
        <lane id="715271352_0" index="0" allow="private emergency authority army vip passenger hov taxi bus coach delivery truck trailer motorcycle evehicle custom1 custom2" speed="13.89" length="94.51" shape="381.87,93.42 378.63,87.51 373.73,71.88 371.94,55.32 373.67,28.50 380.37,1.46">
            <param key="origId" value="715271352"/>
        </lane>
    </edge>
    <edge id="715294577" from="236677603" to="1483501016" name="Bukit Timah Expressway" priority="9" type="highway.motorway_link" spreadType="center" shape="320.62,206.54 332.97,178.42 340.12,167.45 348.43,158.14">
        <lane id="715294577_0" index="0" allow="private emergency authority army vip passenger hov taxi bus coach delivery truck trailer motorcycle evehicle custom1 custom2" speed="13.89" length="46.02" shape="320.62,206.54 332.97,178.42 340.12,167.45 341.59,165.80">
            <param key="origId" value="715294577"/>
        </lane>
    </edge>
    <edge id="75525465" from="158016356" to="158015739" name="Bukit Timah Expressway" priority="14" type="highway.motorway" spreadType="center" shape="336.60,35.54 326.28,70.75 285.25,206.69 255.65,310.29 225.68,428.11 198.15,528.99 177.01,597.33">
        <lane id="75525465_0" index="0" allow="private emergency authority army vip passenger hov taxi bus coach delivery truck trailer motorcycle evehicle custom1 custom2" speed="25.00" length="527.36" shape="329.16,49.54 323.21,69.84 282.18,205.79 252.56,309.46 222.59,427.29 195.08,528.10 186.14,556.99">
            <param key="origId" value="75525465 649588971 135028067 135028060 135028064 135028057"/>
        </lane>
        <lane id="75525465_1" index="1" allow="private emergency authority army vip passenger hov taxi bus coach delivery truck trailer motorcycle evehicle custom1 custom2" speed="25.00" length="527.36" shape="332.23,50.44 326.28,70.75 285.25,206.69 255.65,310.29 225.68,428.11 198.15,528.99 189.19,557.94">
            <param key="origId" value="75525465 649588971 135028067 135028060 135028064 135028057"/>
        </lane>
        <lane id="75525465_2" index="2" allow="private emergency authority army vip passenger hov taxi bus coach delivery truck trailer motorcycle evehicle custom1 custom2" speed="25.00" length="527.36" shape="335.30,51.34 329.35,71.66 288.32,207.59 258.74,311.12 228.77,428.93 201.22,529.88 192.25,558.89">
            <param key="origId" value="75525465 649588971 135028067 135028060 135028064 135028057"/>
        </lane>
        <param key="ref" value="BKE"/>
    </edge>
    <edge id="75525466" from="236676663" to="1483496608" name="Bukit Panjang Road" priority="12" type="highway.primary" spreadType="center" shape="158.97,269.24 90.97,274.83 36.64,282.48 0.00,290.97">
        <lane id="75525466_0" index="0" disallow="tram rail_urban rail rail_electric rail_fast ship" speed="16.67" length="191.09" shape="188.99,263.56 90.62,271.65 36.05,279.33 -0.72,287.85">
            <param key="origId" value="75525466"/>
        </lane>
        <lane id="75525466_1" index="1" disallow="tram rail_urban rail rail_electric rail_fast ship" speed="16.67" length="191.09" shape="189.25,266.75 90.97,274.83 36.64,282.48 0.00,290.97">
            <param key="origId" value="75525466"/>
        </lane>
        <lane id="75525466_2" index="2" disallow="tram rail_urban rail rail_electric rail_fast ship" speed="16.67" length="191.09" shape="189.52,269.94 91.32,278.01 37.23,285.63 0.72,294.09">
            <param key="origId" value="75525466"/>
        </lane>
    </edge>
    <edge id="796401594" from="158003665" to="158003718" name="Bukit Timah Expressway" priority="14" type="highway.motorway" spreadType="center" shape="272.06,328.06 277.91,304.67 306.30,207.24 364.47,0.00">
        <lane id="796401594_0" index="0" allow="private emergency authority army vip passenger hov taxi bus coach delivery truck trailer motorcycle evehicle custom1 custom2" speed="25.00" length="339.30" shape="275.50,327.48 281.00,305.51 309.38,208.12 367.55,0.86">
            <param key="origId" value="796401594 75351832 135028068"/>
        </lane>
        <lane id="796401594_1" index="1" allow="private emergency authority army vip passenger hov taxi bus coach delivery truck trailer motorcycle evehicle custom1 custom2" speed="25.00" length="339.30" shape="272.43,326.57 277.91,304.67 306.30,207.24 364.47,-0.00">
            <param key="origId" value="796401594 75351832 135028068"/>
        </lane>
        <lane id="796401594_2" index="2" allow="private emergency authority army vip passenger hov taxi bus coach delivery truck trailer motorcycle evehicle custom1 custom2" speed="25.00" length="339.30" shape="269.36,325.66 274.82,303.83 303.22,206.36 361.39,-0.86">
            <param key="origId" value="796401594 75351832 135028068"/>
        </lane>
        <param key="ref" value="BKE"/>
    </edge>
    <edge id="796401595" from="158003665" to="6072655126" name="Bukit Timah Expressway" priority="9" type="highway.motorway_link" spreadType="center" shape="278.20,329.85 287.01,300.03">
        <lane id="796401595_0" index="0" allow="private emergency authority army vip passenger hov taxi bus coach delivery truck trailer motorcycle evehicle custom1 custom2" speed="13.89" length="29.58" shape="278.63,328.40 287.01,300.03">
            <param key="origId" value="796401595"/>
        </lane>
    </edge>

    <junction id="1483496599" type="priority" x="220.32" y="259.83" incLanes="21962141_0" intLanes=":1483496599_0_0" shape="219.97,258.26 221.01,261.28 220.76,261.37 220.67,261.39 220.58,261.41 220.47,261.42 220.32,261.44">
        <request index="0" response="0" foes="0" cont="0"/>
    </junction>
    <junction id="1483496608" type="dead_end" x="0.00" y="290.97" incLanes="75525466_0 75525466_1 75525466_2" intLanes="" shape="-1.08,286.29 1.08,295.65"/>
    <junction id="1483501016" type="priority" x="348.43" y="158.14" incLanes="715294577_0" intLanes=":1483501016_0_0 :1483501016_0_1" shape="345.33,156.34 348.81,161.71 346.35,163.35 345.54,163.99 344.78,164.70 343.92,165.61 342.78,166.87 340.40,164.74 341.60,163.04 342.21,161.53 342.54,160.17 342.95,158.88 343.77,157.63">
        <request index="0" response="00" foes="00" cont="0"/>
        <request index="1" response="00" foes="00" cont="0"/>
    </junction>
    <junction id="158003602" type="dead_end" x="176.97" y="673.50" incLanes="" intLanes="" shape="172.34,672.22 181.60,674.78"/>
    <junction id="158003665" type="priority" x="272.06" y="328.06" incLanes="649157284_0 649157284_1 649157284_2 649157284_3" intLanes=":158003665_0_0 :158003665_1_0 :158003665_1_1 :158003665_1_2" shape="267.83,325.21 280.16,328.85 279.33,331.72 267.04,328.12">
        <request index="0" response="0000" foes="0000" cont="0"/>
        <request index="1" response="0000" foes="0000" cont="0"/>
        <request index="2" response="0000" foes="0000" cont="0"/>
        <request index="3" response="0000" foes="0000" cont="0"/>
    </junction>
    <junction id="158003718" type="dead_end" x="364.47" y="0.00" incLanes="796401594_0 796401594_1 796401594_2" intLanes="" shape="369.09,1.30 359.85,-1.30"/>
    <junction id="158015739" type="dead_end" x="177.01" y="597.33" incLanes="135030061_0 75525465_0 75525465_1 75525465_2" intLanes="" shape="181.21,556.02 184.37,556.47 184.61,556.52 193.78,559.36 186.78,580.75 181.75,593.36 178.67,597.20 177.56,592.25 178.40,578.53"/>
    <junction id="158016356" type="dead_end" x="336.60" y="35.54" incLanes="" intLanes="" shape="336.84,51.79 327.63,49.09 327.51,49.05 325.04,46.57"/>
    <junction id="236676663" type="priority" x="158.97" y="269.24" incLanes="135030057_0 21962132_0 21962132_1" intLanes=":236676663_0_0 :236676663_1_0 :236676663_1_1" shape="195.36,261.01 195.94,264.17 195.95,264.27 196.26,270.67 189.65,271.53 188.86,261.97">
        <request index="0" response="000" foes="000" cont="0"/>
        <request index="1" response="000" foes="000" cont="0"/>
        <request index="2" response="000" foes="000" cont="0"/>
    </junction>
    <junction id="236677083" type="priority" x="219.77" y="266.34" incLanes="135028070_0 135028070_1" intLanes=":236677083_0_0 :236677083_0_1" shape="219.67,263.14 220.14,269.52 219.79,269.54 219.48,263.15">
        <request index="0" response="00" foes="00" cont="0"/>
        <request index="1" response="00" foes="00" cont="0"/>
    </junction>
    <junction id="236677280" type="dead_end" x="151.57" y="283.12" incLanes="" intLanes="" shape="176.72,277.99 177.21,284.37 177.18,284.79 176.82,287.98 167.09,285.67 161.24,283.62 159.28,281.82 161.21,280.28 167.02,279.01"/>
    <junction id="236677603" type="priority" x="320.62" y="206.54" incLanes="21962145_0" intLanes=":236677603_0_0" shape="319.18,205.85 322.11,207.13 319.10,206.05">
        <request index="0" response="0" foes="0" cont="0"/>
    </junction>
    <junction id="236689176" type="dead_end" x="380.37" y="1.46" incLanes="715271352_0" intLanes="" shape="381.92,1.84 378.82,1.08"/>