<?xml version="1.0" encoding="UTF-8"?>

<!-- generated on 2023-07-17 15:41:52 by Eclipse SUMO netconvert Version 1.17.0
<configuration xmlns:xsi="http://www.w3.org/2001/XMLSchema-instance" xsi:noNamespaceSchemaLocation="http://sumo.dlr.de/xsd/netconvertConfiguration.xsd">

    <input>
        <sumo-net-file value="osm.net.xml.gz"/>
    </input>

    <output>
        <output-file value="osm.net.xml"/>
        <output.street-names value="true"/>
    </output>

    <processing>
        <geometry.min-radius.fix.railways value="false"/>
        <geometry.max-grade.fix value="false"/>
        <offset.disable-normalization value="true"/>
        <lefthand value="1"/>
    </processing>

    <junctions>
        <no-turnarounds value="true"/>
        <junctions.corner-detail value="5"/>
        <junctions.limit-turn-speed value="5.50"/>
        <rectangular-lane-cut value="0"/>
    </junctions>

    <pedestrian>
        <walkingareas value="0"/>
    </pedestrian>

</configuration>
-->

<net version="1.16" junctionCornerDetail="5" lefthand="true" limitTurnSpeed="5.50" xmlns:xsi="http://www.w3.org/2001/XMLSchema-instance" xsi:noNamespaceSchemaLocation="http://sumo.dlr.de/xsd/net_file.xsd">

    <location netOffset="-365469.22,-144807.53" convBoundary="0.00,0.00,888.35,576.19" origBoundary="103.790780,1.309824,103.798765,1.315036" projParameter="+proj=utm +zone=48 +ellps=WGS84 +datum=WGS84 +units=m +no_defs"/>

    <type id="highway.bridleway" priority="1" numLanes="1" speed="2.78" allow="pedestrian" oneway="1" width="2.00"/>
    <type id="highway.bus_guideway" priority="1" numLanes="1" speed="27.78" allow="bus" oneway="1"/>
    <type id="highway.cycleway" priority="1" numLanes="1" speed="5.56" allow="bicycle" oneway="0" width="1.00"/>
    <type id="highway.footway" priority="1" numLanes="1" speed="2.78" allow="pedestrian" oneway="1" width="2.00"/>
    <type id="highway.ford" priority="1" numLanes="1" speed="2.78" allow="army" oneway="0"/>
    <type id="highway.living_street" priority="2" numLanes="1" speed="2.78" disallow="tram rail_urban rail rail_electric rail_fast ship" oneway="0"/>
    <type id="highway.motorway" priority="14" numLanes="2" speed="39.44" allow="private emergency authority army vip passenger hov taxi bus coach delivery truck trailer motorcycle evehicle custom1 custom2" oneway="1"/>
    <type id="highway.motorway_link" priority="9" numLanes="1" speed="22.22" allow="private emergency authority army vip passenger hov taxi bus coach delivery truck trailer motorcycle evehicle custom1 custom2" oneway="1"/>
    <type id="highway.path" priority="1" numLanes="1" speed="5.56" allow="pedestrian bicycle" oneway="0" width="2.00"/>
    <type id="highway.pedestrian" priority="1" numLanes="1" speed="2.78" allow="pedestrian" oneway="1" width="2.00"/>
    <type id="highway.primary" priority="12" numLanes="2" speed="27.78" disallow="tram rail_urban rail rail_electric rail_fast ship" oneway="0"/>
    <type id="highway.primary_link" priority="7" numLanes="1" speed="22.22" disallow="tram rail_urban rail rail_electric rail_fast ship" oneway="0"/>
    <type id="highway.raceway" priority="15" numLanes="2" speed="83.33" allow="vip" oneway="0"/>
    <type id="highway.residential" priority="3" numLanes="1" speed="13.89" disallow="tram rail_urban rail rail_electric rail_fast ship" oneway="0"/>
    <type id="highway.secondary" priority="11" numLanes="1" speed="27.78" disallow="tram rail_urban rail rail_electric rail_fast ship" oneway="0"/>
    <type id="highway.secondary_link" priority="6" numLanes="1" speed="22.22" disallow="tram rail_urban rail rail_electric rail_fast ship" oneway="0"/>
    <type id="highway.service" priority="1" numLanes="1" speed="5.56" allow="pedestrian delivery bicycle" oneway="0"/>
    <type id="highway.stairs" priority="1" numLanes="1" speed="1.39" allow="pedestrian" oneway="1" width="2.00"/>
    <type id="highway.step" priority="1" numLanes="1" speed="1.39" allow="pedestrian" oneway="1" width="2.00"/>
    <type id="highway.steps" priority="1" numLanes="1" speed="1.39" allow="pedestrian" oneway="1" width="2.00"/>
    <type id="highway.tertiary" priority="10" numLanes="1" speed="22.22" disallow="tram rail_urban rail rail_electric rail_fast ship" oneway="0"/>
    <type id="highway.tertiary_link" priority="5" numLanes="1" speed="22.22" disallow="tram rail_urban rail rail_electric rail_fast ship" oneway="0"/>
    <type id="highway.track" priority="1" numLanes="1" speed="5.56" allow="pedestrian motorcycle moped bicycle" oneway="0"/>
    <type id="highway.trunk" priority="13" numLanes="2" speed="27.78" disallow="pedestrian bicycle tram rail_urban rail rail_electric rail_fast ship" oneway="0"/>
    <type id="highway.trunk_link" priority="8" numLanes="1" speed="22.22" disallow="pedestrian bicycle tram rail_urban rail rail_electric rail_fast ship" oneway="0"/>
    <type id="highway.unclassified" priority="4" numLanes="1" speed="13.89" disallow="tram rail_urban rail rail_electric rail_fast ship" oneway="0"/>
    <type id="highway.unsurfaced" priority="1" numLanes="1" speed="8.33" disallow="tram rail_urban rail rail_electric rail_fast ship" oneway="0"/>
    <type id="railway.highspeed" priority="21" numLanes="1" speed="69.44" allow="rail_fast" oneway="1"/>
    <type id="railway.light_rail" priority="19" numLanes="1" speed="27.78" allow="rail_urban" oneway="1"/>
    <type id="railway.preserved" priority="16" numLanes="1" speed="27.78" allow="rail" oneway="1"/>
    <type id="railway.rail" priority="20" numLanes="1" speed="44.44" allow="rail" oneway="1"/>
    <type id="railway.subway" priority="18" numLanes="1" speed="27.78" allow="rail_urban" oneway="1"/>
    <type id="railway.tram" priority="17" numLanes="1" speed="13.89" allow="tram" oneway="1"/>

    <edge id=":1488310977_0" function="internal">
        <lane id=":1488310977_0_0" index="0" disallow="tram rail_urban rail rail_electric rail_fast ship" speed="6.18" length="9.05" shape="649.47,89.26 646.96,89.70 645.05,89.17 643.72,87.69 642.99,85.26"/>
    </edge>
    <edge id=":1488310977_1" function="internal">
        <lane id=":1488310977_1_0" index="0" disallow="tram rail_urban rail rail_electric rail_fast ship" speed="8.56" length="14.51" shape="649.47,89.26 645.74,91.00 643.27,93.39 642.05,96.43 642.09,100.11"/>
    </edge>
    <edge id=":1488310977_2" function="internal">
        <lane id=":1488310977_2_0" index="0" disallow="tram rail_urban rail rail_electric rail_fast ship" speed="7.17" length="9.89" shape="645.24,99.59 645.24,97.15 646.11,95.12 647.84,93.50 650.45,92.31"/>
    </edge>
    <edge id=":1488310977_3" function="internal">
        <lane id=":1488310977_3_0" index="0" disallow="tram rail_urban rail rail_electric rail_fast ship" speed="11.11" length="14.51" shape="645.24,99.59 642.99,85.26"/>
    </edge>
    <edge id=":1488310977_4" function="internal">
        <lane id=":1488310977_4_0" index="0" disallow="tram rail_urban rail rail_electric rail_fast ship" speed="11.11" length="14.56" shape="639.83,85.73 642.09,100.11"/>
    </edge>
    <edge id=":1488310977_5" function="internal">
        <lane id=":1488310977_5_0" index="0" disallow="tram rail_urban rail rail_electric rail_fast ship" speed="7.73" length="14.86" shape="639.83,85.73 641.03,89.73 643.20,92.16 646.34,93.02 650.45,92.31"/>
    </edge>
    <edge id=":1710518725_0" function="internal">
        <lane id=":1710518725_0_0" index="0" disallow="tram rail_urban rail rail_electric rail_fast ship" speed="6.64" length="8.87" shape="655.31,157.87 655.09,155.57 655.69,153.67 657.11,152.17 659.35,151.07"/>
    </edge>
    <edge id=":1710518725_1" function="internal">
        <lane id=":1710518725_1_0" index="0" disallow="tram rail_urban rail rail_electric rail_fast ship" speed="11.11" length="10.74" shape="655.31,157.87 653.16,147.35"/>
    </edge>
    <edge id=":1710518725_2" function="internal">
        <lane id=":1710518725_2_0" index="0" disallow="tram rail_urban rail rail_electric rail_fast ship" speed="11.11" length="11.00" shape="650.00,147.88 652.20,158.65"/>
    </edge>
    <edge id=":1710518725_3" function="internal">
        <lane id=":1710518725_3_0" index="0" disallow="tram rail_urban rail rail_electric rail_fast ship" speed="6.91" length="11.57" shape="650.00,147.88 650.96,150.33 652.83,151.68 655.63,151.93 659.35,151.07"/>
    </edge>
    <edge id=":1722526034_0" function="internal">
        <lane id=":1722526034_0_0" index="0" disallow="tram rail_urban rail rail_electric rail_fast ship" speed="7.53" length="10.35" shape="368.55,342.85 367.55,339.95 367.43,337.41 368.19,335.25 369.84,333.44"/>
    </edge>
    <edge id=":1722526034_1" function="internal">
        <lane id=":1722526034_1_0" index="0" disallow="tram rail_urban rail rail_electric rail_fast ship" speed="5.85" length="10.18" shape="358.40,342.55 361.24,340.71 363.38,340.38 364.82,341.56 365.56,344.24"/>
    </edge>
    <edge id=":1722526034_2" function="internal">
        <lane id=":1722526034_2_0" index="0" disallow="tram rail_urban rail rail_electric rail_fast ship" speed="16.67" length="14.69" shape="358.40,342.55 369.84,333.44"/>
        <lane id=":1722526034_2_1" index="1" disallow="tram rail_urban rail rail_electric rail_fast ship" speed="16.67" length="14.69" shape="356.38,340.06 367.88,330.91"/>
        <lane id=":1722526034_2_2" index="2" disallow="tram rail_urban rail rail_electric rail_fast ship" speed="16.67" length="14.69" shape="354.37,337.58 365.92,328.38"/>
    </edge>
    <edge id=":1790099318_0" function="internal">
        <lane id=":1790099318_0_0" index="0" disallow="tram rail_urban rail rail_electric rail_fast ship" speed="11.11" length="15.61" shape="401.69,436.90 397.90,436.18 394.07,435.09 390.42,433.60 387.13,431.63"/>
    </edge>
    <edge id=":1790099318_1" function="internal">
        <lane id=":1790099318_1_0" index="0" disallow="tram rail_urban rail rail_electric rail_fast ship" speed="7.48" length="18.03" shape="401.69,436.90 395.99,436.73 392.76,438.31 392.02,441.62 393.76,446.67"/>
    </edge>
    <edge id=":1790099318_2" function="internal">
        <lane id=":1790099318_2_0" index="0" disallow="tram rail_urban rail rail_electric rail_fast ship" speed="5.63" length="9.53" shape="396.61,445.23 395.68,442.53 396.04,440.76 397.72,439.91 400.70,439.99"/>
    </edge>
    <edge id=":1790099318_3" function="internal">
        <lane id=":1790099318_3_0" index="0" disallow="tram rail_urban rail rail_electric rail_fast ship" speed="11.11" length="16.70" shape="396.61,445.23 394.75,441.64 392.55,437.86 390.00,434.37 387.13,431.63"/>
    </edge>
    <edge id=":1790099318_4" function="internal">
        <lane id=":1790099318_4_0" index="0" disallow="tram rail_urban rail rail_electric rail_fast ship" speed="11.11" length="15.22" shape="385.25,434.22 387.97,436.78 390.18,439.87 392.05,443.25 393.76,446.67"/>
    </edge>
    <edge id=":1790099318_5" function="internal">
        <lane id=":1790099318_5_0" index="0" disallow="tram rail_urban rail rail_electric rail_fast ship" speed="11.11" length="16.62" shape="385.25,434.22 388.67,436.26 392.64,437.93 396.77,439.19 400.70,439.99"/>
    </edge>
    <edge id=":1790099362_0" function="internal">
        <lane id=":1790099362_0_0" index="0" disallow="tram rail_urban rail rail_electric rail_fast ship" speed="8.26" length="8.88" shape="235.59,393.77 234.83,396.20 233.72,398.13 232.24,399.56 230.41,400.50"/>
    </edge>
    <edge id=":1790099362_1" function="internal">
        <lane id=":1790099362_1_0" index="0" disallow="tram rail_urban rail rail_electric rail_fast ship" speed="16.67" length="9.16" shape="238.45,396.77 236.08,397.91 234.48,398.77 232.87,399.56 230.41,400.50"/>
        <lane id=":1790099362_1_1" index="1" disallow="tram rail_urban rail rail_electric rail_fast ship" speed="16.67" length="9.16" shape="239.75,399.69 237.30,400.87 235.66,401.75 233.99,402.56 231.45,403.53"/>
        <lane id=":1790099362_1_2" index="2" disallow="tram rail_urban rail rail_electric rail_fast ship" speed="16.67" length="9.16" shape="241.06,402.61 238.53,403.82 236.83,404.73 235.10,405.56 232.49,406.55"/>
    </edge>
    <edge id=":1795317104_0" function="internal">
        <lane id=":1795317104_0_0" index="0" disallow="tram rail_urban rail rail_electric rail_fast ship" speed="10.93" length="6.33" shape="234.40,372.49 235.59,373.88 236.13,375.04 236.39,376.35 236.73,378.21"/>
    </edge>
    <edge id=":1795317104_1" function="internal">
        <lane id=":1795317104_1_0" index="0" disallow="tram rail_urban rail rail_electric rail_fast ship" speed="16.67" length="7.19" shape="236.68,370.24 237.93,371.90 238.45,373.30 238.95,374.70 240.16,376.40"/>
        <lane id=":1795317104_1_1" index="1" disallow="tram rail_urban rail rail_electric rail_fast ship" speed="16.67" length="7.19" shape="238.96,367.99 240.23,369.67 240.75,371.08 241.26,372.50 242.50,374.21"/>
    </edge>
    <edge id=":1795317107_0" function="internal">
        <lane id=":1795317107_0_0" index="0" disallow="tram rail_urban rail rail_electric rail_fast ship" speed="15.28" length="15.52" shape="260.71,373.87 257.31,372.91 254.15,371.76 250.94,369.81 247.42,366.45"/>
    </edge>
    <edge id=":1795317107_1" function="internal">
        <lane id=":1795317107_1_0" index="0" disallow="tram rail_urban rail rail_electric rail_fast ship" speed="16.67" length="15.28" shape="257.51,377.93 247.42,366.45"/>
        <lane id=":1795317107_1_1" index="1" disallow="tram rail_urban rail rail_electric rail_fast ship" speed="16.67" length="15.28" shape="255.09,380.03 245.01,368.56"/>
    </edge>
    <edge id=":1795317123_0" function="internal">
        <lane id=":1795317123_0_0" index="0" disallow="tram rail_urban rail rail_electric rail_fast ship" speed="12.35" length="9.15" shape="281.39,372.66 279.21,374.09 277.43,374.55 275.47,374.56 272.73,374.62"/>
    </edge>
    <edge id=":1795317123_1" function="internal">
        <lane id=":1795317123_1_0" index="0" disallow="tram rail_urban rail rail_electric rail_fast ship" speed="16.67" length="10.50" shape="283.41,375.14 280.89,376.57 278.81,376.87 276.66,377.07 273.95,378.23"/>
        <lane id=":1795317123_1_1" index="1" disallow="tram rail_urban rail rail_electric rail_fast ship" speed="16.67" length="10.50" shape="285.42,377.63 282.81,379.14 280.66,379.49 278.44,379.74 275.62,380.96"/>
        <lane id=":1795317123_1_2" index="2" disallow="tram rail_urban rail rail_electric rail_fast ship" speed="16.67" length="10.50" shape="287.43,380.12 284.73,381.70 282.50,382.10 280.21,382.40 277.29,383.69"/>
    </edge>
    <edge id=":236462163_0" function="internal">
        <lane id=":236462163_0_0" index="0" disallow="tram rail_urban rail rail_electric rail_fast ship" speed="13.97" length="7.65" shape="620.87,259.25 618.96,258.09 617.82,257.04 616.91,255.74 615.67,253.83"/>
    </edge>
    <edge id=":236462163_1" function="internal">
        <lane id=":236462163_1_0" index="0" disallow="pedestrian tram rail_urban rail rail_electric rail_fast ship" speed="16.67" length="8.25" shape="619.36,262.07 617.39,260.69 616.29,259.40 615.19,258.10 613.23,256.70"/>
        <lane id=":236462163_1_1" index="1" disallow="pedestrian tram rail_urban rail rail_electric rail_fast ship" speed="16.67" length="8.25" shape="617.85,264.89 615.86,263.51 614.75,262.21 613.65,260.90 611.68,259.50"/>
        <lane id=":236462163_1_2" index="2" disallow="pedestrian tram rail_urban rail rail_electric rail_fast ship" speed="16.67" length="8.25" shape="616.33,267.71 614.34,266.32 613.22,265.02 612.11,263.71 610.13,262.30"/>
    </edge>
    <edge id=":236462259_0" function="internal">
        <lane id=":236462259_0_0" index="0" disallow="tram rail_urban rail rail_electric rail_fast ship" speed="16.67" length="8.09" shape="329.82,335.80 327.72,337.03 326.08,337.56 324.48,338.12 322.45,339.44"/>
        <lane id=":236462259_0_1" index="1" disallow="tram rail_urban rail rail_electric rail_fast ship" speed="16.67" length="8.09" shape="329.82,335.80 328.04,337.41 327.09,338.80 326.17,340.23 324.46,341.93"/>
        <lane id=":236462259_0_2" index="2" disallow="tram rail_urban rail rail_electric rail_fast ship" speed="16.67" length="8.09" shape="331.70,338.39 329.96,339.97 329.04,341.34 328.14,342.75 326.47,344.42"/>
        <lane id=":236462259_0_3" index="3" disallow="tram rail_urban rail rail_electric rail_fast ship" speed="16.67" length="8.09" shape="333.58,340.98 331.88,342.53 330.98,343.88 330.12,345.26 328.48,346.90"/>
    </edge>
    <edge id=":236473920_0" function="internal">
        <lane id=":236473920_0_0" index="0" disallow="tram rail_urban rail rail_electric rail_fast ship" speed="7.29" length="9.92" shape="175.85,417.54 173.44,417.84 171.30,417.25 169.43,415.76 167.82,413.37"/>
    </edge>
    <edge id=":236473920_1" function="internal">
        <lane id=":236473920_1_0" index="0" disallow="tram rail_urban rail rail_electric rail_fast ship" speed="16.67" length="14.35" shape="175.85,417.54 162.08,421.88"/>
        <lane id=":236473920_1_1" index="1" disallow="tram rail_urban rail rail_electric rail_fast ship" speed="16.67" length="14.35" shape="176.76,420.60 163.08,424.92"/>
        <lane id=":236473920_1_2" index="2" disallow="tram rail_urban rail rail_electric rail_fast ship" speed="16.67" length="14.35" shape="177.68,423.67 164.08,427.96"/>
    </edge>
    <edge id=":236473920_4" function="internal">
        <lane id=":236473920_4_0" index="0" disallow="tram rail_urban rail rail_electric rail_fast ship" speed="6.19" length="9.05" shape="164.97,414.83 165.80,417.22 165.60,419.19 164.36,420.75 162.08,421.88"/>
    </edge>
    <edge id=":236474121_0" function="internal">
        <lane id=":236474121_0_0" index="0" disallow="tram rail_urban rail rail_electric rail_fast ship" speed="16.67" length="8.21" shape="167.16,441.71 169.52,441.21 171.22,441.23 172.91,441.25 175.27,440.74"/>
        <lane id=":236474121_0_1" index="1" disallow="tram rail_urban rail rail_electric rail_fast ship" speed="16.67" length="8.21" shape="166.17,438.67 168.52,438.16 170.22,438.19 171.91,438.21 174.27,437.70"/>
        <lane id=":236474121_0_2" index="2" disallow="tram rail_urban rail rail_electric rail_fast ship" speed="16.67" length="8.21" shape="165.17,435.63 167.53,435.12 169.22,435.15 170.92,435.17 173.27,434.66"/>
        <lane id=":236474121_0_3" index="3" disallow="tram rail_urban rail rail_electric rail_fast ship" speed="16.67" length="8.21" shape="165.17,435.63 167.37,434.65 168.72,433.63 170.07,432.61 172.27,431.62"/>
    </edge>
    <edge id=":2509966646_0" function="internal">
        <lane id=":2509966646_0_0" index="0" disallow="tram rail_urban rail rail_electric rail_fast ship" speed="3.65" length="4.67" shape="586.77,398.61 585.45,399.20 584.92,399.92 585.18,400.77 586.23,401.77"/>
    </edge>
    <edge id=":2509967871_0" function="internal">
        <lane id=":2509967871_0_0" index="0" disallow="tram rail_urban rail rail_electric rail_fast ship" speed="3.65" length="4.67" shape="437.48,533.61 438.73,534.32 439.63,534.32 440.16,533.60 440.34,532.17"/>
    </edge>
    <edge id=":3728809227_0" function="internal">
        <lane id=":3728809227_0_0" index="0" disallow="tram rail_urban rail rail_electric rail_fast ship" speed="8.06" length="6.61" shape="568.61,233.72 566.84,235.14 565.29,236.11 563.97,236.64 562.88,236.72"/>
    </edge>
    <edge id=":3728809227_1" function="internal">
        <lane id=":3728809227_1_0" index="0" disallow="pedestrian tram rail_urban rail rail_electric rail_fast ship" speed="16.67" length="5.97" shape="569.08,238.05 562.88,236.72"/>
        <lane id=":3728809227_1_1" index="1" disallow="pedestrian tram rail_urban rail rail_electric rail_fast ship" speed="16.67" length="5.97" shape="568.25,241.15 562.41,239.88"/>
        <lane id=":3728809227_1_2" index="2" disallow="pedestrian tram rail_urban rail rail_electric rail_fast ship" speed="16.67" length="5.97" shape="567.41,244.24 561.95,243.05"/>
    </edge>
    <edge id=":3739878453_0" function="internal">
        <lane id=":3739878453_0_0" index="0" disallow="pedestrian tram rail_urban rail rail_electric rail_fast ship" speed="8.86" length="6.06" shape="572.59,226.11 572.64,227.86 572.36,229.05 571.70,230.15 570.65,231.62"/>
    </edge>
    <edge id=":3739878453_1" function="internal">
        <lane id=":3739878453_1_0" index="0" disallow="pedestrian tram rail_urban rail rail_electric rail_fast ship" speed="13.89" length="7.51" shape="575.77,225.78 575.72,227.95 575.28,229.43 574.81,230.92 574.70,233.10"/>
        <lane id=":3739878453_1_1" index="1" disallow="pedestrian tram rail_urban rail rail_electric rail_fast ship" speed="13.89" length="7.51" shape="578.95,225.45 578.91,227.66 578.47,229.16 578.00,230.66 577.89,232.87"/>
    </edge>
    <edge id=":404208418_0" function="internal">
        <lane id=":404208418_0_0" index="0" disallow="tram rail_urban rail rail_electric rail_fast ship" speed="6.07" length="8.47" shape="635.19,39.11 634.38,36.89 633.07,35.55 631.25,35.11 628.93,35.55"/>
    </edge>
    <edge id=":404208418_1" function="internal">
        <lane id=":404208418_1_0" index="0" disallow="tram rail_urban rail rail_electric rail_fast ship" speed="3.90" length="2.82" shape="629.97,38.57 630.74,38.43 631.35,38.57 631.78,39.02 632.05,39.76"/>
    </edge>
    <edge id=":404208493_0" function="internal">
        <lane id=":404208493_0_0" index="0" disallow="tram rail_urban rail rail_electric rail_fast ship" speed="11.11" length="0.11" shape="656.23,161.71 656.27,161.62"/>
    </edge>
    <edge id=":404208493_1" function="internal">
        <lane id=":404208493_1_0" index="0" disallow="tram rail_urban rail rail_electric rail_fast ship" speed="11.11" length="0.43" shape="653.14,162.26 653.18,162.39 653.21,162.47 653.24,162.55 653.26,162.68"/>
    </edge>
    <edge id=":404208983_0" function="internal">
        <lane id=":404208983_0_0" index="0" disallow="tram rail_urban rail rail_electric rail_fast ship" speed="3.65" length="4.67" shape="8.35,388.24 7.91,389.61 8.10,390.49 8.91,390.86 10.35,390.74"/>
    </edge>
    <edge id=":404208994_0" function="internal">
        <lane id=":404208994_0_0" index="0" disallow="tram rail_urban rail rail_electric rail_fast ship" speed="11.11" length="14.36" shape="619.28,38.60 605.52,42.73"/>
    </edge>
    <edge id=":404208994_1" function="internal">
        <lane id=":404208994_1_0" index="0" disallow="tram rail_urban rail rail_electric rail_fast ship" speed="8.59" length="14.41" shape="619.28,38.60 615.99,40.20 613.81,42.62 612.74,45.87 612.79,49.94"/>
    </edge>
    <edge id=":404208994_2" function="internal">
        <lane id=":404208994_2_0" index="0" disallow="tram rail_urban rail rail_electric rail_fast ship" speed="7.20" length="9.85" shape="615.96,49.51 615.91,46.67 616.60,44.41 618.04,42.74 620.22,41.65"/>
    </edge>
    <edge id=":404208994_3" function="internal">
        <lane id=":404208994_3_0" index="0" disallow="tram rail_urban rail rail_electric rail_fast ship" speed="7.73" length="14.78" shape="615.96,49.51 614.82,45.50 612.71,43.03 609.61,42.11 605.52,42.73"/>
    </edge>
    <edge id=":404208994_4" function="internal">
        <lane id=":404208994_4_0" index="0" disallow="tram rail_urban rail rail_electric rail_fast ship" speed="6.18" length="9.04" shape="606.40,45.81 608.90,45.43 610.80,45.99 612.10,47.49 612.79,49.94"/>
    </edge>
    <edge id=":404208994_5" function="internal">
        <lane id=":404208994_5_0" index="0" disallow="tram rail_urban rail rail_electric rail_fast ship" speed="11.11" length="14.44" shape="606.40,45.81 620.22,41.65"/>
    </edge>
    <edge id=":404209005_0" function="internal">
        <lane id=":404209005_0_0" index="0" disallow="tram rail_urban rail rail_electric rail_fast ship" speed="11.11" length="3.52" shape="618.96,95.81 619.34,96.71 619.96,97.19 620.58,97.66 620.95,98.57"/>
    </edge>
    <edge id=":404209005_1" function="internal">
        <lane id=":404209005_1_0" index="0" disallow="tram rail_urban rail rail_electric rail_fast ship" speed="3.65" length="4.67" shape="618.96,95.81 619.92,96.89 620.76,97.18 621.50,96.68 622.14,95.38"/>
    </edge>
    <edge id=":4739837729_0" function="internal">
        <lane id=":4739837729_0_0" index="0" disallow="tram rail_urban rail rail_electric rail_fast ship" speed="16.67" length="8.02" shape="163.77,277.50 162.29,275.59 161.56,274.07 160.80,272.57 159.23,270.76"/>
        <lane id=":4739837729_0_1" index="1" disallow="tram rail_urban rail rail_electric rail_fast ship" speed="16.67" length="8.02" shape="161.45,279.70 160.02,277.84 159.31,276.34 158.58,274.87 157.05,273.11"/>
        <lane id=":4739837729_0_2" index="2" disallow="tram rail_urban rail rail_electric rail_fast ship" speed="16.67" length="8.02" shape="161.45,279.70 159.68,278.22 158.22,277.51 156.73,276.84 154.87,275.45"/>
    </edge>
    <edge id=":4745471615_0" function="internal">
        <lane id=":4745471615_0_0" index="0" disallow="tram rail_urban rail rail_electric rail_fast ship" speed="13.89" length="8.13" shape="569.24,93.93 568.82,91.55 568.88,89.85 568.92,88.15 568.41,85.80"/>
        <lane id=":4745471615_0_1" index="1" disallow="tram rail_urban rail rail_electric rail_fast ship" speed="13.89" length="8.13" shape="566.16,94.81 565.75,92.46 565.82,90.79 565.87,89.12 565.37,86.79"/>
        <lane id=":4745471615_0_2" index="2" disallow="tram rail_urban rail rail_electric rail_fast ship" speed="13.89" length="8.13" shape="566.16,94.81 565.28,92.63 564.30,91.29 563.30,89.95 562.33,87.79"/>
    </edge>
    <edge id=":4745471617_0" function="internal">
        <lane id=":4745471617_0_0" index="0" disallow="tram rail_urban rail rail_electric rail_fast ship" speed="13.89" length="6.46" shape="586.45,200.94 585.41,199.33 584.68,198.20 584.16,197.01 583.74,195.16"/>
    </edge>
    <edge id=":4745471617_1" function="internal">
        <lane id=":4745471617_1_0" index="0" disallow="pedestrian tram rail_urban rail rail_electric rail_fast ship" speed="13.89" length="6.91" shape="582.91,202.17 582.45,200.20 581.80,198.93 581.14,197.66 580.59,195.71"/>
    </edge>
    <edge id=":4745477602_0" function="internal">
        <lane id=":4745477602_0_0" index="0" disallow="tram rail_urban rail rail_electric rail_fast ship" speed="13.89" length="6.54" shape="574.12,119.60 574.18,117.59 574.54,116.20 574.79,114.83 574.52,112.88"/>
        <lane id=":4745477602_0_1" index="1" disallow="tram rail_urban rail rail_electric rail_fast ship" speed="13.89" length="6.54" shape="570.93,119.89 571.01,118.04 571.39,116.77 571.66,115.51 571.44,113.72"/>
    </edge>
    <edge id=":5014444732_0" function="internal">
        <lane id=":5014444732_0_0" index="0" disallow="tram rail_urban rail rail_electric rail_fast ship" speed="13.89" length="7.40" shape="200.43,172.90 199.57,174.75 198.60,175.83 197.55,176.88 196.45,178.64"/>
        <lane id=":5014444732_0_1" index="1" disallow="tram rail_urban rail rail_electric rail_fast ship" speed="13.89" length="7.40" shape="203.48,173.87 202.58,175.84 201.58,177.00 200.50,178.13 199.35,180.01"/>
        <lane id=":5014444732_0_2" index="2" disallow="tram rail_urban rail rail_electric rail_fast ship" speed="13.89" length="7.40" shape="203.48,173.87 203.03,176.09 203.04,177.69 202.96,179.26 202.24,181.37"/>
    </edge>
    <edge id=":5136006171_0" function="internal">
        <lane id=":5136006171_0_0" index="0" disallow="tram rail_urban rail rail_electric rail_fast ship" speed="16.67" length="9.57" shape="505.82,254.66 508.29,254.35 509.99,254.21 511.69,254.20 514.17,254.28"/>
        <lane id=":5136006171_0_1" index="1" disallow="tram rail_urban rail rail_electric rail_fast ship" speed="16.67" length="9.57" shape="505.18,251.52 507.87,251.18 509.73,251.02 511.58,250.99 514.30,251.08"/>
        <lane id=":5136006171_0_2" index="2" disallow="tram rail_urban rail rail_electric rail_fast ship" speed="16.67" length="9.57" shape="504.54,248.37 507.46,248.00 509.47,247.82 511.48,247.79 514.42,247.88"/>
        <lane id=":5136006171_0_3" index="3" disallow="tram rail_urban rail rail_electric rail_fast ship" speed="16.67" length="9.57" shape="504.54,248.37 507.58,247.48 509.53,246.20 511.48,245.08 514.54,244.69"/>
    </edge>
    <edge id=":5962995113_0" function="internal">
        <lane id=":5962995113_0_0" index="0" disallow="tram rail_urban rail rail_electric rail_fast ship" speed="13.89" length="8.20" shape="566.07,150.13 566.05,152.55 565.66,154.20 565.27,155.85 565.27,158.27"/>
        <lane id=":5962995113_0_1" index="1" disallow="tram rail_urban rail rail_electric rail_fast ship" speed="13.89" length="8.20" shape="569.25,149.83 569.23,152.24 568.84,153.88 568.45,155.53 568.45,157.94"/>
        <lane id=":5962995113_0_2" index="2" disallow="tram rail_urban rail rail_electric rail_fast ship" speed="13.89" length="8.20" shape="569.25,149.83 569.73,152.18 570.43,153.72 571.14,155.26 571.63,157.61"/>
    </edge>
    <edge id=":5962995126_0" function="internal">
        <lane id=":5962995126_0_0" index="0" disallow="tram rail_urban rail rail_electric rail_fast ship" speed="13.89" length="7.96" shape="582.13,185.90 581.99,183.62 582.30,182.04 582.66,180.46 582.67,178.16"/>
        <lane id=":5962995126_0_1" index="1" disallow="tram rail_urban rail rail_electric rail_fast ship" speed="13.89" length="7.96" shape="582.13,185.90 581.49,183.66 580.71,182.21 579.98,180.75 579.49,178.49"/>
        <lane id=":5962995126_0_2" index="2" disallow="tram rail_urban rail rail_electric rail_fast ship" speed="13.89" length="7.96" shape="578.98,186.45 578.33,184.14 577.54,182.65 576.80,181.15 576.31,178.82"/>
    </edge>
    <edge id=":6115745390_0" function="internal">