<?xml version="1.0" encoding="UTF-8"?>

<!-- generated on 2023-07-18 13:14:09 by Eclipse SUMO netconvert Version 1.17.0
<configuration xmlns:xsi="http://www.w3.org/2001/XMLSchema-instance" xsi:noNamespaceSchemaLocation="http://sumo.dlr.de/xsd/netconvertConfiguration.xsd">

    <input>
        <sumo-net-file value="osm.net.xml.gz"/>
    </input>

    <output>
        <output-file value="osm.net.xml"/>
        <output.street-names value="true"/>
    </output>

    <processing>
        <geometry.min-radius.fix.railways value="false"/>
        <geometry.max-grade.fix value="false"/>
        <offset.disable-normalization value="true"/>
        <lefthand value="1"/>
    </processing>

    <junctions>
        <no-turnarounds value="true"/>
        <junctions.corner-detail value="5"/>
        <junctions.limit-turn-speed value="5.50"/>
        <rectangular-lane-cut value="0"/>
    </junctions>

    <pedestrian>
        <walkingareas value="0"/>
    </pedestrian>

</configuration>
-->

<net version="1.16" junctionCornerDetail="5" lefthand="true" limitTurnSpeed="5.50" xmlns:xsi="http://www.w3.org/2001/XMLSchema-instance" xsi:noNamespaceSchemaLocation="http://sumo.dlr.de/xsd/net_file.xsd">

    <location netOffset="-380896.42,-146191.79" convBoundary="0.00,0.00,591.07,239.01" origBoundary="103.929425,1.322409,103.934737,1.324572" projParameter="+proj=utm +zone=48 +ellps=WGS84 +datum=WGS84 +units=m +no_defs"/>

    <type id="highway.bridleway" priority="1" numLanes="1" speed="2.78" allow="pedestrian" oneway="1" width="2.00"/>
    <type id="highway.bus_guideway" priority="1" numLanes="1" speed="27.78" allow="bus" oneway="1"/>
    <type id="highway.cycleway" priority="1" numLanes="1" speed="5.56" allow="bicycle" oneway="0" width="1.00"/>
    <type id="highway.footway" priority="1" numLanes="1" speed="2.78" allow="pedestrian" oneway="1" width="2.00"/>
    <type id="highway.ford" priority="1" numLanes="1" speed="2.78" allow="army" oneway="0"/>
    <type id="highway.living_street" priority="2" numLanes="1" speed="2.78" disallow="tram rail_urban rail rail_electric rail_fast ship" oneway="0"/>
    <type id="highway.motorway" priority="14" numLanes="2" speed="39.44" allow="private emergency authority army vip passenger hov taxi bus coach delivery truck trailer motorcycle evehicle custom1 custom2" oneway="1"/>
    <type id="highway.motorway_link" priority="9" numLanes="1" speed="22.22" allow="private emergency authority army vip passenger hov taxi bus coach delivery truck trailer motorcycle evehicle custom1 custom2" oneway="1"/>
    <type id="highway.path" priority="1" numLanes="1" speed="5.56" allow="pedestrian bicycle" oneway="0" width="2.00"/>
    <type id="highway.pedestrian" priority="1" numLanes="1" speed="2.78" allow="pedestrian" oneway="1" width="2.00"/>
    <type id="highway.primary" priority="12" numLanes="2" speed="27.78" disallow="tram rail_urban rail rail_electric rail_fast ship" oneway="0"/>
    <type id="highway.primary_link" priority="7" numLanes="1" speed="22.22" disallow="tram rail_urban rail rail_electric rail_fast ship" oneway="0"/>
    <type id="highway.raceway" priority="15" numLanes="2" speed="83.33" allow="vip" oneway="0"/>
    <type id="highway.residential" priority="3" numLanes="1" speed="13.89" disallow="tram rail_urban rail rail_electric rail_fast ship" oneway="0"/>
    <type id="highway.secondary" priority="11" numLanes="1" speed="27.78" disallow="tram rail_urban rail rail_electric rail_fast ship" oneway="0"/>
    <type id="highway.secondary_link" priority="6" numLanes="1" speed="22.22" disallow="tram rail_urban rail rail_electric rail_fast ship" oneway="0"/>
    <type id="highway.service" priority="1" numLanes="1" speed="5.56" allow="pedestrian delivery bicycle" oneway="0"/>
    <type id="highway.stairs" priority="1" numLanes="1" speed="1.39" allow="pedestrian" oneway="1" width="2.00"/>
    <type id="highway.step" priority="1" numLanes="1" speed="1.39" allow="pedestrian" oneway="1" width="2.00"/>
    <type id="highway.steps" priority="1" numLanes="1" speed="1.39" allow="pedestrian" oneway="1" width="2.00"/>
    <type id="highway.tertiary" priority="10" numLanes="1" speed="22.22" disallow="tram rail_urban rail rail_electric rail_fast ship" oneway="0"/>
    <type id="highway.tertiary_link" priority="5" numLanes="1" speed="22.22" disallow="tram rail_urban rail rail_electric rail_fast ship" oneway="0"/>
    <type id="highway.track" priority="1" numLanes="1" speed="5.56" allow="pedestrian motorcycle moped bicycle" oneway="0"/>
    <type id="highway.trunk" priority="13" numLanes="2" speed="27.78" disallow="pedestrian bicycle tram rail_urban rail rail_electric rail_fast ship" oneway="0"/>
    <type id="highway.trunk_link" priority="8" numLanes="1" speed="22.22" disallow="pedestrian bicycle tram rail_urban rail rail_electric rail_fast ship" oneway="0"/>
    <type id="highway.unclassified" priority="4" numLanes="1" speed="13.89" disallow="tram rail_urban rail rail_electric rail_fast ship" oneway="0"/>
    <type id="highway.unsurfaced" priority="1" numLanes="1" speed="8.33" disallow="tram rail_urban rail rail_electric rail_fast ship" oneway="0"/>
    <type id="railway.highspeed" priority="21" numLanes="1" speed="69.44" allow="rail_fast" oneway="1"/>
    <type id="railway.light_rail" priority="19" numLanes="1" speed="27.78" allow="rail_urban" oneway="1"/>
    <type id="railway.preserved" priority="16" numLanes="1" speed="27.78" allow="rail" oneway="1"/>
    <type id="railway.rail" priority="20" numLanes="1" speed="44.44" allow="rail" oneway="1"/>
    <type id="railway.subway" priority="18" numLanes="1" speed="27.78" allow="rail_urban" oneway="1"/>
    <type id="railway.tram" priority="17" numLanes="1" speed="13.89" allow="tram" oneway="1"/>

    <edge id=":1865254938_0" function="internal">
        <lane id=":1865254938_0_0" index="0" allow="bus bicycle" speed="3.65" length="4.67" shape="89.12,157.77 87.82,158.38 87.31,159.12 87.59,159.97 88.66,160.93"/>
    </edge>
    <edge id=":259397036_0" function="internal">
        <lane id=":259397036_0_0" index="0" disallow="tram rail_urban rail rail_electric rail_fast ship" speed="16.67" length="8.18" shape="282.37,67.37 281.77,69.71 281.00,71.23 280.25,72.76 279.72,75.11"/>
        <lane id=":259397036_0_1" index="1" disallow="tram rail_urban rail rail_electric rail_fast ship" speed="16.67" length="8.18" shape="282.37,67.37 282.27,69.77 282.59,71.42 282.93,73.08 282.90,75.49"/>
        <lane id=":259397036_0_2" index="2" disallow="tram rail_urban rail rail_electric rail_fast ship" speed="16.67" length="8.18" shape="285.54,67.84 285.44,70.21 285.76,71.85 286.11,73.49 286.07,75.87"/>
    </edge>
    <edge id=":4592829561_0" function="internal">
        <lane id=":4592829561_0_0" index="0" disallow="tram rail_urban rail rail_electric rail_fast ship" speed="13.93" length="16.11" shape="245.74,166.93 242.70,168.80 239.46,170.11 235.54,170.71 230.46,170.42"/>
    </edge>
    <edge id=":4592829561_1" function="internal">
        <lane id=":4592829561_1_0" index="0" allow="bus bicycle" speed="7.36" length="19.50" shape="245.74,166.93 241.62,171.00 239.76,175.59 240.68,179.51 244.92,181.61"/>
    </edge>
    <edge id=":4592829561_2" function="internal">
        <lane id=":4592829561_2_0" index="0" disallow="tram rail_urban rail rail_electric rail_fast ship" speed="16.67" length="15.72" shape="246.04,172.07 230.46,170.42"/>
        <lane id=":4592829561_2_1" index="1" disallow="tram rail_urban rail rail_electric rail_fast ship" speed="16.67" length="15.72" shape="245.67,175.25 230.04,173.59"/>
        <lane id=":4592829561_2_2" index="2" disallow="tram rail_urban rail rail_electric rail_fast ship" speed="16.67" length="15.72" shape="245.30,178.43 229.62,176.76"/>
    </edge>
    <edge id=":4592829561_5" function="internal">
        <lane id=":4592829561_5_0" index="0" allow="bus bicycle" speed="3.65" length="1.44" shape="245.30,178.43 244.01,179.08"/>
    </edge>
    <edge id=":4592829561_8" function="internal">
        <lane id=":4592829561_8_0" index="0" allow="bus bicycle" speed="3.65" length="3.23" shape="244.01,179.08 243.52,179.83 243.82,180.67 244.92,181.61"/>
    </edge>
    <edge id=":4592829561_6" function="internal">
        <lane id=":4592829561_6_0" index="0" allow="bus bicycle" speed="16.67" length="15.82" shape="229.19,179.93 244.92,181.61"/>
    </edge>
    <edge id=":4592829561_7" function="internal">
        <lane id=":4592829561_7_0" index="0" allow="bus bicycle" speed="3.65" length="1.44" shape="229.19,179.93 230.49,179.30"/>
    </edge>
    <edge id=":4592829561_9" function="internal">
        <lane id=":4592829561_9_0" index="0" allow="bus bicycle" speed="3.65" length="3.23" shape="230.49,179.30 230.99,178.56 230.70,177.71 229.62,176.76"/>
    </edge>
    <edge id=":4592829565_0" function="internal">
        <lane id=":4592829565_0_0" index="0" disallow="tram rail_urban rail rail_electric rail_fast ship" speed="15.28" length="6.21" shape="273.59,126.34 273.29,128.14 272.89,129.33 272.30,130.47 271.47,132.12"/>
    </edge>
    <edge id=":4592829565_1" function="internal">
        <lane id=":4592829565_1_0" index="0" disallow="tram rail_urban rail rail_electric rail_fast ship" speed="16.67" length="6.54" shape="276.77,126.72 276.37,128.63 275.85,129.89 275.36,131.15 275.04,133.07"/>
        <lane id=":4592829565_1_1" index="1" disallow="tram rail_urban rail rail_electric rail_fast ship" speed="16.67" length="6.54" shape="279.94,127.10 279.55,128.97 279.03,130.20 278.54,131.43 278.23,133.30"/>
    </edge>
    <edge id=":4592829566_0" function="internal">
        <lane id=":4592829566_0_0" index="0" disallow="tram rail_urban rail rail_electric rail_fast ship" speed="16.67" length="9.17" shape="296.45,156.10 295.39,153.81 294.80,152.17 294.49,150.45 294.26,147.94"/>
        <lane id=":4592829566_0_1" index="1" disallow="tram rail_urban rail rail_electric rail_fast ship" speed="16.67" length="9.17" shape="296.45,156.10 294.80,153.71 293.13,152.32 291.78,150.84 291.07,148.20"/>
    </edge>
    <edge id=":4592829570_0" function="internal">
        <lane id=":4592829570_0_0" index="0" disallow="tram rail_urban rail rail_electric rail_fast ship" speed="12.08" length="9.36" shape="316.29,176.14 313.57,175.67 311.71,175.11 310.09,174.08 308.09,172.21"/>
    </edge>
    <edge id=":4592829570_1" function="internal">
        <lane id=":4592829570_1_0" index="0" disallow="tram rail_urban rail rail_electric rail_fast ship" speed="16.67" length="9.57" shape="316.29,176.14 313.58,176.34 311.82,177.49 310.04,178.69 307.32,179.03"/>
        <lane id=":4592829570_1_1" index="1" disallow="tram rail_urban rail rail_electric rail_fast ship" speed="16.67" length="9.57" shape="315.77,179.29 313.11,179.50 311.38,180.66 309.64,181.87 306.96,182.21"/>
        <lane id=":4592829570_1_2" index="2" disallow="tram rail_urban rail rail_electric rail_fast ship" speed="16.67" length="9.57" shape="315.25,182.45 312.64,182.67 310.94,183.83 309.24,185.04 306.61,185.39"/>
    </edge>
    <edge id=":4592829570_4" function="internal">
        <lane id=":4592829570_4_0" index="0" allow="bus bicycle" speed="3.65" length="1.44" shape="314.73,185.61 313.42,186.20"/>
    </edge>
    <edge id=":4592829570_8" function="internal">
        <lane id=":4592829570_8_0" index="0" allow="bus bicycle" speed="3.65" length="3.23" shape="313.42,186.20 312.90,186.93 313.16,187.78 314.21,188.77"/>
    </edge>
    <edge id=":4592829570_5" function="internal">
        <lane id=":4592829570_5_0" index="0" allow="bus bicycle" speed="16.67" length="7.97" shape="306.25,188.57 314.21,188.77"/>
    </edge>
    <edge id=":4592829570_6" function="internal">
        <lane id=":4592829570_6_0" index="0" allow="bus bicycle" speed="7.69" length="5.58" shape="306.25,188.57 311.28,187.36 311.44,186.98"/>
    </edge>
    <edge id=":4592829570_7" function="internal">
        <lane id=":4592829570_7_0" index="0" allow="bus bicycle" speed="3.65" length="1.44" shape="306.25,188.57 307.53,187.91"/>
    </edge>
    <edge id=":4592829570_9" function="internal">
        <lane id=":4592829570_9_0" index="0" allow="bus bicycle" speed="7.69" length="16.35" shape="311.44,186.98 313.00,183.20 311.80,177.65 308.09,172.21"/>
    </edge>
    <edge id=":4592829570_10" function="internal">
        <lane id=":4592829570_10_0" index="0" allow="bus bicycle" speed="3.65" length="3.23" shape="307.53,187.91 308.02,187.16 307.71,186.32 306.61,185.39"/>
    </edge>
    <edge id=":4592829571_0" function="internal">
        <lane id=":4592829571_0_0" index="0" disallow="tram rail_urban rail rail_electric rail_fast ship" speed="16.67" length="13.01" shape="183.16,164.09 170.19,162.41"/>
        <lane id=":4592829571_0_1" index="1" disallow="tram rail_urban rail rail_electric rail_fast ship" speed="16.67" length="13.01" shape="182.74,167.26 169.83,165.59"/>
        <lane id=":4592829571_0_2" index="2" disallow="tram rail_urban rail rail_electric rail_fast ship" speed="16.67" length="13.01" shape="182.31,170.43 169.47,168.77"/>
    </edge>
    <edge id=":4592829571_3" function="internal">
        <lane id=":4592829571_3_0" index="0" allow="bus bicycle" speed="3.65" length="1.44" shape="182.31,170.43 181.02,171.07"/>
    </edge>
    <edge id=":4592829571_9" function="internal">
        <lane id=":4592829571_9_0" index="0" allow="bus bicycle" speed="3.65" length="3.23" shape="181.02,171.07 180.51,171.81 180.81,172.65 181.89,173.61"/>
    </edge>
    <edge id=":4592829571_4" function="internal">
        <lane id=":4592829571_4_0" index="0" allow="bus bicycle" speed="5.86" length="9.64" shape="177.71,179.57 177.09,176.63 177.58,174.66 179.18,173.65 181.89,173.61"/>
    </edge>
    <edge id=":4592829571_5" function="internal">
        <lane id=":4592829571_5_0" index="0" disallow="pedestrian tram rail_urban rail rail_electric rail_fast ship" speed="10.42" length="15.28" shape="177.71,179.57 175.46,173.59 173.40,169.27 171.52,166.60 169.83,165.59"/>
        <lane id=":4592829571_5_1" index="1" disallow="pedestrian tram rail_urban rail rail_electric rail_fast ship" speed="9.72" length="15.28" shape="177.71,179.57 175.87,175.05 173.89,171.74 171.75,169.65 169.47,168.77"/>
    </edge>
    <edge id=":4592829571_7" function="internal">
        <lane id=":4592829571_7_0" index="0" allow="bus bicycle" speed="16.67" length="12.88" shape="169.11,171.95 181.89,173.61"/>
    </edge>
    <edge id=":4592829571_8" function="internal">
        <lane id=":4592829571_8_0" index="0" allow="bus bicycle" speed="3.65" length="1.44" shape="169.11,171.95 170.40,171.29"/>
    </edge>
    <edge id=":4592829571_10" function="internal">
        <lane id=":4592829571_10_0" index="0" allow="bus bicycle" speed="3.65" length="3.23" shape="170.40,171.29 170.88,170.54 170.58,169.70 169.47,168.77"/>
    </edge>
    <edge id=":4675260747_0" function="internal">
        <lane id=":4675260747_0_0" index="0" allow="bus bicycle" speed="3.65" length="4.67" shape="566.55,240.60 567.84,239.95 568.34,239.21 568.04,238.36 566.95,237.42"/>
    </edge>
    <edge id=":4675722406_0" function="internal">
        <lane id=":4675722406_0_0" index="0" allow="bus bicycle" speed="3.65" length="4.67" shape="0.29,178.02 -1.03,178.58 -1.57,179.30 -1.33,180.16 -0.29,181.16"/>
    </edge>
    <edge id=":5173707033_0" function="internal">
        <lane id=":5173707033_0_0" index="0" allow="bus bicycle" speed="16.67" length="7.68" shape="158.12,201.58 150.47,200.89"/>
    </edge>
    <edge id=":5173707033_1" function="internal">
        <lane id=":5173707033_1_0" index="0" disallow="tram rail_urban rail rail_electric rail_fast ship" speed="16.67" length="8.82" shape="149.07,213.62 151.60,213.39 153.26,212.45 154.92,211.48 157.46,211.16"/>
        <lane id=":5173707033_1_1" index="1" disallow="tram rail_urban rail rail_electric rail_fast ship" speed="16.67" length="8.82" shape="149.42,210.44 151.91,210.21 153.54,209.27 155.18,208.29 157.68,207.96"/>
        <lane id=":5173707033_1_2" index="2" disallow="tram rail_urban rail rail_electric rail_fast ship" speed="16.67" length="8.82" shape="149.77,207.26 152.22,207.02 153.83,206.08 155.43,205.10 157.90,204.77"/>
    </edge>
    <edge id=":562922321_0" function="internal">
        <lane id=":562922321_0_0" index="0" allow="bus bicycle" speed="5.59" length="8.23" shape="176.69,203.00 174.71,202.48 173.70,201.28 173.66,199.39 174.59,196.83"/>
    </edge>
    <edge id=":562922321_1" function="internal">
        <lane id=":562922321_1_0" index="0" allow="bus bicycle" speed="16.67" length="12.90" shape="176.69,203.00 163.83,201.97"/>
    </edge>
    <edge id=":562922321_2" function="internal">
        <lane id=":562922321_2_0" index="0" allow="bus bicycle" speed="3.65" length="1.44" shape="176.69,203.00 175.41,203.67"/>
    </edge>
    <edge id=":562922321_8" function="internal">
        <lane id=":562922321_8_0" index="0" allow="bus bicycle" speed="3.65" length="3.23" shape="175.41,203.67 174.93,204.43 175.24,205.26 176.36,206.18"/>
    </edge>
    <edge id=":562922321_3" function="internal">
        <lane id=":562922321_3_0" index="0" disallow="tram rail_urban rail rail_electric rail_fast ship" speed="16.67" length="12.67" shape="163.17,211.55 175.69,212.55"/>
        <lane id=":562922321_3_1" index="1" disallow="tram rail_urban rail rail_electric rail_fast ship" speed="16.67" length="12.67" shape="163.39,208.36 176.02,209.37"/>
        <lane id=":562922321_3_2" index="2" disallow="tram rail_urban rail rail_electric rail_fast ship" speed="16.67" length="12.67" shape="163.61,205.16 176.36,206.18"/>
    </edge>
    <edge id=":562922321_6" function="internal">
        <lane id=":562922321_6_0" index="0" disallow="pedestrian tram rail_urban rail rail_electric rail_fast ship" speed="9.57" length="3.32" shape="163.61,205.16 166.81,204.82 166.90,204.77"/>
    </edge>
    <edge id=":562922321_7" function="internal">
        <lane id=":562922321_7_0" index="0" allow="bus bicycle" speed="3.65" length="1.44" shape="163.61,205.16 164.86,204.45"/>
    </edge>
    <edge id=":562922321_9" function="internal">
        <lane id=":562922321_9_0" index="0" disallow="pedestrian tram rail_urban rail rail_electric rail_fast ship" speed="9.57" length="11.33" shape="166.90,204.77 169.71,203.31 172.30,200.65 174.59,196.83"/>
    </edge>
    <edge id=":562922321_10" function="internal">
        <lane id=":562922321_10_0" index="0" allow="bus bicycle" speed="3.65" length="3.23" shape="164.86,204.45 165.32,203.68 164.97,202.85 163.83,201.97"/>
    </edge>
    <edge id=":6141719293_0" function="internal">
        <lane id=":6141719293_0_0" index="0" allow="bus bicycle" speed="16.67" length="8.04" shape="136.43,199.35 128.43,198.50"/>
    </edge>
    <edge id=":6141719293_1" function="internal">
        <lane id=":6141719293_1_0" index="0" disallow="tram rail_urban rail rail_electric rail_fast ship" speed="16.67" length="8.59" shape="127.46,208.05 129.85,208.80 131.25,210.05 132.65,211.31 135.03,212.07"/>
        <lane id=":6141719293_1_1" index="1" disallow="tram rail_urban rail rail_electric rail_fast ship" speed="16.67" length="8.59" shape="127.79,204.87 130.18,205.61 131.59,206.87 132.99,208.13 135.38,208.89"/>
        <lane id=":6141719293_1_2" index="2" disallow="tram rail_urban rail rail_electric rail_fast ship" speed="16.67" length="8.59" shape="128.11,201.69 130.51,202.43 131.92,203.68 133.34,204.94 135.73,205.71"/>
        <lane id=":6141719293_1_3" index="3" disallow="tram rail_urban rail rail_electric rail_fast ship" speed="16.67" length="8.59" shape="128.11,201.69 136.08,202.53"/>
    </edge>
    <edge id=":6191206948_0" function="internal">
        <lane id=":6191206948_0_0" index="0" allow="bus bicycle" speed="3.65" length="4.67" shape="590.85,226.83 592.15,226.19 592.66,225.46 592.37,224.61 591.29,223.65"/>
    </edge>
    <edge id=":6448879095_0" function="internal">
        <lane id=":6448879095_0_0" index="0" disallow="tram rail_urban rail rail_electric rail_fast ship" speed="16.67" length="20.87" shape="272.34,169.85 271.62,190.80"/>
        <lane id=":6448879095_0_1" index="1" disallow="tram rail_urban rail rail_electric rail_fast ship" speed="16.67" length="20.87" shape="275.53,170.02 274.82,190.80"/>
    </edge>
    <edge id=":6448879095_2" function="internal">
        <lane id=":6448879095_2_0" index="0" allow="bus bicycle" speed="9.06" length="17.72" shape="275.53,170.02 275.53,176.66 276.36,181.49 278.00,184.51 280.46,185.73"/>
    </edge>
    <edge id=":6448879095_3" function="internal">
        <lane id=":6448879095_3_0" index="0" disallow="tram rail_urban rail rail_electric rail_fast ship" speed="16.67" length="14.85" shape="281.50,176.19 266.46,174.75"/>
        <lane id=":6448879095_3_1" index="1" disallow="tram rail_urban rail rail_electric rail_fast ship" speed="16.67" length="14.85" shape="281.15,179.37 266.37,177.97"/>
        <lane id=":6448879095_3_2" index="2" disallow="tram rail_urban rail rail_electric rail_fast ship" speed="16.67" length="14.85" shape="280.81,182.55 266.28,181.19"/>
    </edge>
    <edge id=":6448879095_6" function="internal">
        <lane id=":6448879095_6_0" index="0" allow="bus bicycle" speed="3.65" length="1.44" shape="280.81,182.55 279.53,183.21"/>
    </edge>
    <edge id=":6448879095_10" function="internal">
        <lane id=":6448879095_10_0" index="0" allow="bus bicycle" speed="3.65" length="3.23" shape="279.53,183.21 279.04,183.97 279.36,184.80 280.46,185.73"/>
    </edge>
    <edge id=":6448879095_7" function="internal">
        <lane id=":6448879095_7_0" index="0" allow="bus bicycle" speed="6.92" length="9.32" shape="266.19,184.40 268.56,185.07 270.26,186.36 271.28,188.27 271.62,190.80"/>
    </edge>
    <edge id=":6448879095_8" function="internal">
        <lane id=":6448879095_8_0" index="0" allow="bus bicycle" speed="16.67" length="14.33" shape="266.19,184.40 280.46,185.73"/>
    </edge>
    <edge id=":6448879095_9" function="internal">
        <lane id=":6448879095_9_0" index="0" allow="bus bicycle" speed="3.66" length="1.45" shape="266.19,184.40 267.42,183.63"/>
    </edge>
    <edge id=":6448879095_11" function="internal">
        <lane id=":6448879095_11_0" index="0" allow="bus bicycle" speed="3.66" length="3.25" shape="267.42,183.63 267.85,182.84 267.47,182.02 266.28,181.19"/>
    </edge>
    <edge id=":7174500361_0" function="internal">
        <lane id=":7174500361_0_0" index="0" disallow="tram rail_urban rail rail_electric rail_fast ship" speed="16.67" length="8.54" shape="379.48,189.65 377.17,188.83 375.85,187.53 374.53,186.21 372.23,185.33"/>
        <lane id=":7174500361_0_1" index="1" disallow="tram rail_urban rail rail_electric rail_fast ship" speed="16.67" length="8.54" shape="379.05,192.82 376.71,192.00 375.37,190.69 374.04,189.37 371.71,188.48"/>
        <lane id=":7174500361_0_2" index="2" disallow="tram rail_urban rail rail_electric rail_fast ship" speed="16.67" length="8.54" shape="378.62,195.99 376.26,195.16 374.90,193.86 373.55,192.53 371.20,191.64"/>
        <lane id=":7174500361_0_3" index="3" disallow="tram rail_urban rail rail_electric rail_fast ship" speed="16.67" length="8.54" shape="378.62,195.99 370.68,194.80"/>
    </edge>
    <edge id=":7174500361_4" function="internal">
        <lane id=":7174500361_4_0" index="0" allow="bus bicycle" speed="16.67" length="8.12" shape="370.16,197.96 378.18,199.16"/>
    </edge>
    <edge id=":960312890_0" function="internal">
        <lane id=":960312890_0_0" index="0" allow="bus bicycle" speed="16.67" length="14.44" shape="280.37,209.67 265.96,208.90"/>
    </edge>
    <edge id=":960312890_1" function="internal">
        <lane id=":960312890_1_0" index="0" allow="bus bicycle" speed="3.65" length="4.67" shape="280.37,209.67 279.14,210.42 278.70,211.20 279.06,212.02 280.22,212.87"/>
    </edge>
    <edge id=":960312890_2" function="internal">
        <lane id=":960312890_2_0" index="0" disallow="tram rail_urban rail rail_electric rail_fast ship" speed="16.67" length="14.54" shape="265.35,218.48 279.92,219.26"/>
        <lane id=":960312890_2_1" index="1" disallow="tram rail_urban rail rail_electric rail_fast ship" speed="16.67" length="14.54" shape="265.56,215.28 280.07,216.07"/>
        <lane id=":960312890_2_2" index="2" disallow="tram rail_urban rail rail_electric rail_fast ship" speed="16.67" length="14.54" shape="265.76,212.09 280.22,212.87"/>
    </edge>
    <edge id=":960312890_5" function="internal">
        <lane id=":960312890_5_0" index="0" allow="bus bicycle" speed="3.65" length="1.44" shape="265.76,212.09 267.01,211.37"/>
    </edge>
    <edge id=":960312890_9" function="internal">
        <lane id=":960312890_9_0" index="0" allow="bus bicycle" speed="3.65" length="3.23" shape="267.01,211.37 267.46,210.60 267.11,209.77 265.96,208.90"/>
    </edge>
    <edge id=":960312890_6" function="internal">
        <lane id=":960312890_6_0" index="0" allow="bus bicycle" speed="6.38" length="9.05" shape="271.65,203.53 271.30,206.01 270.23,207.73 268.45,208.69 265.96,208.90"/>
    </edge>
    <edge id=":960312890_7" function="internal">
        <lane id=":960312890_7_0" index="0" disallow="tram rail_urban rail rail_electric rail_fast ship" speed="8.84" length="3.98" shape="271.65,203.53 272.04,207.49"/>
        <lane id=":960312890_7_1" index="1" disallow="tram rail_urban rail rail_electric rail_fast ship" speed="7.52" length="4.16" shape="274.85,203.52 275.19,207.52 275.24,207.66"/>
    </edge>
    <edge id=":960312890_10" function="internal">
        <lane id=":960312890_10_0" index="0" disallow="tram rail_urban rail rail_electric rail_fast ship" speed="8.84" length="12.92" shape="272.04,207.49 272.18,208.87 273.76,212.73 276.39,215.13 280.07,216.07"/>
    </edge>
    <edge id=":960312890_11" function="internal">
        <lane id=":960312890_11_0" index="0" disallow="tram rail_urban rail rail_electric rail_fast ship" speed="7.52" length="7.80" shape="275.24,207.66 276.20,210.41 277.88,212.19 280.22,212.87"/>
    </edge>

    <edge id="-325024329#0" from="562922321" to="5173707033" name="New Upper Changi Road" priority="12" type="highway.primary">
        <lane id="-325024329#0_0" index="0" allow="bus bicycle" speed="16.67" length="5.72" shape="163.83,201.97 158.12,201.58">
            <param key="origId" value="325024329"/>
        </lane>
    </edge>
    <edge id="-473376612" from="7174500361" to="6191206948" name="New Upper Changi Road" priority="12" type="highway.primary" shape="374.39,197.03 388.58,198.96 450.84,207.24 489.09,211.33 496.24,212.34 591.07,225.24">
        <lane id="-473376612_0" index="0" allow="bus bicycle" speed="16.67" length="214.47" shape="378.18,199.16 388.37,200.55 450.65,208.83 488.89,212.92 496.02,213.92 590.85,226.83">
            <param key="origId" value="473376612 768471960 473376611 768471961 464288976"/>
        </lane>
    </edge>
    <edge id="-473376613" from="6448879095" to="4592829570" name="New Upper Changi Road" priority="12" type="highway.primary" shape="273.21,183.33 296.79,185.90 327.76,189.37">
        <lane id="-473376613_0" index="0" allow="bus bicycle" speed="16.67" length="25.95" shape="280.46,185.73 296.61,187.49 306.25,188.57">
            <param key="origId" value="473376613"/>
        </lane>
    </edge>
    <edge id="-635640229" from="4675260747" to="960312890" name="New Upper Changi Road" priority="12" type="highway.primary" shape="566.75,239.01 471.19,227.17 437.03,222.94 427.63,221.68 388.26,217.59 387.30,217.49 366.47,216.29 363.31,216.11 330.30,213.64 273.26,210.94">
        <lane id="-635640229_0" index="0" allow="bus bicycle" speed="16.67" length="288.05" shape="566.95,237.42 471.39,225.58 437.23,221.35 427.82,220.09 388.43,216.00 387.43,215.89 366.56,214.69 363.42,214.51 330.40,212.04 280.37,209.67">
            <param key="origId" value="635640229 474497475 661314059 474497474 661314060 464288975"/>
        </lane>
    </edge>
    <edge id="-655522686#1" from="960312890" to="562922321" name="New Upper Changi Road" priority="12" type="highway.primary" shape="273.26,210.94 269.94,210.73 267.73,210.61 211.97,207.17 173.88,204.40 169.47,204.09 165.94,203.72">
        <lane id="-655522686#1_0" index="0" allow="bus bicycle" speed="16.67" length="89.47" shape="265.96,208.90 212.08,205.57 176.69,203.00">
            <param key="origId" value="655522686 655522686 661313505 825925109 325024329"/>
        </lane>
    </edge>
    <edge id="-655522687" from="5173707033" to="6141719293" name="New Upper Changi Road" priority="12" type="highway.primary">
        <lane id="-655522687_0" index="0" allow="bus bicycle" speed="16.67" length="14.12" shape="150.47,200.89 136.43,199.35">
            <param key="origId" value="655522687"/>
        </lane>
    </edge>
    <edge id="-655522688" from="6141719293" to="4675722406" name="New Upper Changi Road" priority="12" type="highway.primary" shape="132.27,200.50 111.81,198.42 56.46,190.16 0.00,179.59">
        <lane id="-655522688_0" index="0" allow="bus bicycle" speed="16.67" length="129.82" shape="128.43,198.50 112.01,196.83 56.73,188.58 0.29,178.02">
            <param key="origId" value="655522688 656747043"/>
        </lane>
    </edge>
    <edge id="-656747369" from="4592829571" to="4592829561" name="New Upper Changi Road" priority="12" type="highway.primary">
        <lane id="-656747369_0" index="0" allow="bus bicycle" speed="16.67" length="47.72" shape="181.89,173.61 229.19,179.93">
            <param key="origId" value="656747369"/>
        </lane>
    </edge>
    <edge id="-661314803" from="4592829561" to="6448879095" name="New Upper Changi Road" priority="12" type="highway.primary" shape="210.51,175.82 235.17,178.71 269.56,183.23 273.21,183.33">