<?xml version="1.0" encoding="UTF-8"?>

<!-- generated on 2023-07-14 10:55:18 by Eclipse SUMO netconvert Version 1.17.0
<configuration xmlns:xsi="http://www.w3.org/2001/XMLSchema-instance" xsi:noNamespaceSchemaLocation="http://sumo.dlr.de/xsd/netconvertConfiguration.xsd">

    <input>
        <sumo-net-file value="osm.net.xml.gz"/>
    </input>

    <output>
        <output-file value="osm.net.xml"/>
        <output.street-names value="true"/>
    </output>

    <processing>
        <geometry.min-radius.fix.railways value="false"/>
        <geometry.max-grade.fix value="false"/>
        <offset.disable-normalization value="true"/>
        <lefthand value="1"/>
    </processing>

    <junctions>
        <no-turnarounds value="true"/>
        <junctions.corner-detail value="5"/>
        <junctions.limit-turn-speed value="5.50"/>
        <rectangular-lane-cut value="0"/>
    </junctions>

    <pedestrian>
        <walkingareas value="0"/>
    </pedestrian>

</configuration>
-->

<net version="1.16" junctionCornerDetail="5" lefthand="true" limitTurnSpeed="5.50" xmlns:xsi="http://www.w3.org/2001/XMLSchema-instance" xsi:noNamespaceSchemaLocation="http://sumo.dlr.de/xsd/net_file.xsd">

    <location netOffset="-361568.95,-155793.41" convBoundary="0.00,0.00,269.26,416.39" origBoundary="103.755679,1.409175,103.758098,1.412941" projParameter="+proj=utm +zone=48 +ellps=WGS84 +datum=WGS84 +units=m +no_defs"/>

    <type id="highway.bridleway" priority="1" numLanes="1" speed="2.78" allow="pedestrian" oneway="1" width="2.00"/>
    <type id="highway.bus_guideway" priority="1" numLanes="1" speed="27.78" allow="bus" oneway="1"/>
    <type id="highway.cycleway" priority="1" numLanes="1" speed="5.56" allow="bicycle" oneway="0" width="1.00"/>
    <type id="highway.footway" priority="1" numLanes="1" speed="2.78" allow="pedestrian" oneway="1" width="2.00"/>
    <type id="highway.ford" priority="1" numLanes="1" speed="2.78" allow="army" oneway="0"/>
    <type id="highway.living_street" priority="2" numLanes="1" speed="2.78" disallow="tram rail_urban rail rail_electric rail_fast ship" oneway="0"/>
    <type id="highway.motorway" priority="14" numLanes="2" speed="39.44" allow="private emergency authority army vip passenger hov taxi bus coach delivery truck trailer motorcycle evehicle custom1 custom2" oneway="1"/>
    <type id="highway.motorway_link" priority="9" numLanes="1" speed="22.22" allow="private emergency authority army vip passenger hov taxi bus coach delivery truck trailer motorcycle evehicle custom1 custom2" oneway="1"/>
    <type id="highway.path" priority="1" numLanes="1" speed="5.56" allow="pedestrian bicycle" oneway="0" width="2.00"/>
    <type id="highway.pedestrian" priority="1" numLanes="1" speed="2.78" allow="pedestrian" oneway="1" width="2.00"/>
    <type id="highway.primary" priority="12" numLanes="2" speed="27.78" disallow="tram rail_urban rail rail_electric rail_fast ship" oneway="0"/>
    <type id="highway.primary_link" priority="7" numLanes="1" speed="22.22" disallow="tram rail_urban rail rail_electric rail_fast ship" oneway="0"/>
    <type id="highway.raceway" priority="15" numLanes="2" speed="83.33" allow="vip" oneway="0"/>
    <type id="highway.residential" priority="3" numLanes="1" speed="13.89" disallow="tram rail_urban rail rail_electric rail_fast ship" oneway="0"/>
    <type id="highway.secondary" priority="11" numLanes="1" speed="27.78" disallow="tram rail_urban rail rail_electric rail_fast ship" oneway="0"/>
    <type id="highway.secondary_link" priority="6" numLanes="1" speed="22.22" disallow="tram rail_urban rail rail_electric rail_fast ship" oneway="0"/>
    <type id="highway.service" priority="1" numLanes="1" speed="5.56" allow="pedestrian delivery bicycle" oneway="0"/>
    <type id="highway.stairs" priority="1" numLanes="1" speed="1.39" allow="pedestrian" oneway="1" width="2.00"/>
    <type id="highway.step" priority="1" numLanes="1" speed="1.39" allow="pedestrian" oneway="1" width="2.00"/>
    <type id="highway.steps" priority="1" numLanes="1" speed="1.39" allow="pedestrian" oneway="1" width="2.00"/>
    <type id="highway.tertiary" priority="10" numLanes="1" speed="22.22" disallow="tram rail_urban rail rail_electric rail_fast ship" oneway="0"/>
    <type id="highway.tertiary_link" priority="5" numLanes="1" speed="22.22" disallow="tram rail_urban rail rail_electric rail_fast ship" oneway="0"/>
    <type id="highway.track" priority="1" numLanes="1" speed="5.56" allow="pedestrian motorcycle moped bicycle" oneway="0"/>
    <type id="highway.trunk" priority="13" numLanes="2" speed="27.78" disallow="pedestrian bicycle tram rail_urban rail rail_electric rail_fast ship" oneway="0"/>
    <type id="highway.trunk_link" priority="8" numLanes="1" speed="22.22" disallow="pedestrian bicycle tram rail_urban rail rail_electric rail_fast ship" oneway="0"/>
    <type id="highway.unclassified" priority="4" numLanes="1" speed="13.89" disallow="tram rail_urban rail rail_electric rail_fast ship" oneway="0"/>
    <type id="highway.unsurfaced" priority="1" numLanes="1" speed="8.33" disallow="tram rail_urban rail rail_electric rail_fast ship" oneway="0"/>
    <type id="railway.highspeed" priority="21" numLanes="1" speed="69.44" allow="rail_fast" oneway="1"/>
    <type id="railway.light_rail" priority="19" numLanes="1" speed="27.78" allow="rail_urban" oneway="1"/>
    <type id="railway.preserved" priority="16" numLanes="1" speed="27.78" allow="rail" oneway="1"/>
    <type id="railway.rail" priority="20" numLanes="1" speed="44.44" allow="rail" oneway="1"/>
    <type id="railway.subway" priority="18" numLanes="1" speed="27.78" allow="rail_urban" oneway="1"/>
    <type id="railway.tram" priority="17" numLanes="1" speed="13.89" allow="tram" oneway="1"/>

    <edge id=":1867272410_0" function="internal">
        <lane id=":1867272410_0_0" index="0" disallow="tram rail_urban rail rail_electric rail_fast ship" speed="16.66" length="9.34" shape="68.04,270.66 70.77,270.14 72.65,269.72 74.53,269.54 77.27,269.76"/>
    </edge>
    <edge id=":1867272410_1" function="internal">
        <lane id=":1867272410_1_0" index="0" disallow="pedestrian tram rail_urban rail rail_electric rail_fast ship" speed="19.44" length="9.78" shape="67.99,267.09 70.86,267.17 72.84,266.82 74.82,266.48 77.69,266.58"/>
        <lane id=":1867272410_1_1" index="1" disallow="pedestrian tram rail_urban rail rail_electric rail_fast ship" speed="19.44" length="9.78" shape="68.38,263.91 71.26,263.99 73.25,263.64 75.23,263.30 78.11,263.41"/>
    </edge>
    <edge id=":1867527388_0" function="internal">
        <lane id=":1867527388_0_0" index="0" disallow="tram rail_urban rail rail_electric rail_fast ship" speed="15.28" length="8.33" shape="25.75,206.23 25.31,203.95 25.79,202.31 26.50,200.61 26.73,198.17"/>
    </edge>
    <edge id=":1867527388_1" function="internal">
        <lane id=":1867527388_1_0" index="0" disallow="tram rail_urban rail rail_electric rail_fast ship" speed="16.67" length="7.99" shape="27.25,206.10 26.73,198.17"/>
        <lane id=":1867527388_1_1" index="1" disallow="tram rail_urban rail rail_electric rail_fast ship" speed="16.67" length="7.99" shape="24.06,206.39 23.54,198.42"/>
        <lane id=":1867527388_1_2" index="2" disallow="tram rail_urban rail rail_electric rail_fast ship" speed="16.67" length="7.99" shape="20.87,206.68 20.35,198.67"/>
    </edge>
    <edge id=":1884168718_0" function="internal">
        <lane id=":1884168718_0_0" index="0" disallow="pedestrian tram rail_urban rail rail_electric rail_fast ship" speed="14.71" length="24.38" shape="35.70,248.67 30.56,250.07 25.72,252.99 21.18,257.42 16.94,263.37"/>
        <lane id=":1884168718_0_1" index="1" disallow="pedestrian tram rail_urban rail rail_electric rail_fast ship" speed="14.56" length="24.38" shape="37.60,251.66 32.49,253.03 27.70,255.87 23.25,260.17 19.13,265.93"/>
    </edge>
    <edge id=":1884168718_2" function="internal">
        <lane id=":1884168718_2_0" index="0" disallow="pedestrian tram rail_urban rail rail_electric rail_fast ship" speed="5.33" length="11.29" shape="37.60,251.66 35.23,253.04 34.72,255.62 35.89,258.23 38.55,259.74"/>
    </edge>
    <edge id=":1884168718_3" function="internal">
        <lane id=":1884168718_3_0" index="0" disallow="tram rail_urban rail rail_electric rail_fast ship" speed="16.67" length="23.80" shape="30.73,267.69 29.23,243.78"/>
        <lane id=":1884168718_3_1" index="1" disallow="tram rail_urban rail rail_electric rail_fast ship" speed="16.67" length="23.80" shape="27.53,267.81 26.04,244.06"/>
        <lane id=":1884168718_3_2" index="2" disallow="tram rail_urban rail rail_electric rail_fast ship" speed="16.67" length="23.80" shape="24.34,267.94 22.85,244.33"/>
    </edge>
    <edge id=":1884168718_6" function="internal">
        <lane id=":1884168718_6_0" index="0" disallow="pedestrian tram rail_urban rail rail_electric rail_fast ship" speed="5.55" length="11.03" shape="24.34,267.94 23.87,264.10 22.84,262.48 21.26,263.09 19.13,265.93"/>
    </edge>
    <edge id=":1884168718_7" function="internal">
        <lane id=":1884168718_7_0" index="0" disallow="pedestrian tram rail_urban rail rail_electric rail_fast ship" speed="8.42" length="14.57" shape="16.09,250.29 18.40,252.83 19.32,255.85 18.83,259.37 16.94,263.37"/>
    </edge>
    <edge id=":1884168718_8" function="internal">
        <lane id=":1884168718_8_0" index="0" disallow="pedestrian tram rail_urban rail rail_electric rail_fast ship" speed="19.44" length="24.71" shape="16.09,250.29 21.28,254.54 25.70,258.11 30.46,260.87 36.73,262.67"/>
        <lane id=":1884168718_8_1" index="1" disallow="pedestrian tram rail_urban rail rail_electric rail_fast ship" speed="14.79" length="24.71" shape="17.69,247.49 20.93,251.83 25.49,255.32 31.36,257.96 38.55,259.74"/>
    </edge>
    <edge id=":1884168718_10" function="internal">
        <lane id=":1884168718_10_0" index="0" disallow="pedestrian tram rail_urban rail rail_electric rail_fast ship" speed="5.66" length="12.41" shape="17.69,247.49 20.06,249.51 22.93,249.30 25.26,247.32 26.04,244.06"/>
        <lane id=":1884168718_10_1" index="1" disallow="pedestrian tram rail_urban rail rail_electric rail_fast ship" speed="6.25" length="15.57" shape="17.69,247.49 20.44,251.77 22.22,252.68 23.03,250.20 22.85,244.33"/>
    </edge>
    <edge id=":236725746_0" function="internal">
        <lane id=":236725746_0_0" index="0" disallow="tram rail_urban rail rail_electric rail_fast ship" speed="16.67" length="4.92" shape="-1.34,151.51 -1.28,152.97 -1.30,153.97 -1.37,154.97 -1.48,156.42"/>
        <lane id=":236725746_0_1" index="1" disallow="tram rail_urban rail rail_electric rail_fast ship" speed="16.67" length="5.31" shape="1.86,151.35 1.92,152.92 1.90,154.00 1.83,155.07 1.71,156.64"/>
    </edge>
    <edge id=":236725746_2" function="internal">
        <lane id=":236725746_2_0" index="0" disallow="pedestrian tram rail_urban rail rail_electric rail_fast ship" speed="18.05" length="7.95" shape="5.05,151.18 5.58,159.28"/>
        <lane id=":236725746_2_1" index="1" disallow="pedestrian tram rail_urban rail rail_electric rail_fast ship" speed="18.05" length="7.95" shape="8.25,151.01 8.75,158.78"/>
    </edge>
    <edge id=":244170103_0" function="internal">
        <lane id=":244170103_0_0" index="0" disallow="tram rail_urban rail rail_electric rail_fast ship" speed="16.66" length="6.93" shape="54.11,247.07 52.10,246.77 50.77,246.33 49.49,245.68 47.66,244.75"/>
    </edge>
    <edge id=":244170103_1" function="internal">
        <lane id=":244170103_1_0" index="0" disallow="pedestrian tram rail_urban rail rail_electric rail_fast ship" speed="19.44" length="7.26" shape="53.80,250.26 51.69,249.86 50.31,249.29 48.92,248.73 46.81,248.36"/>
        <lane id=":244170103_1_1" index="1" disallow="pedestrian tram rail_urban rail rail_electric rail_fast ship" speed="19.44" length="7.26" shape="53.49,253.46 51.40,253.06 50.02,252.48 48.64,251.92 46.54,251.55"/>
    </edge>
    <edge id=":4604203477_0" function="internal">
        <lane id=":4604203477_0_0" index="0" disallow="tram rail_urban rail rail_electric rail_fast ship" speed="16.67" length="8.20" shape="18.77,130.77 18.89,128.36 19.35,126.73 19.80,125.10 19.90,122.69"/>
        <lane id=":4604203477_0_1" index="1" disallow="tram rail_urban rail rail_electric rail_fast ship" speed="16.67" length="8.20" shape="15.58,130.94 15.70,128.54 16.16,126.92 16.61,125.29 16.71,122.89"/>
    </edge>
    <edge id=":4604203486_0" function="internal">
        <lane id=":4604203486_0_0" index="0" disallow="tram rail_urban rail rail_electric rail_fast ship" speed="16.67" length="8.79" shape="13.60,365.62 13.28,368.08 12.28,369.66 11.25,371.24 10.84,373.71"/>
        <lane id=":4604203486_0_1" index="1" disallow="tram rail_urban rail rail_electric rail_fast ship" speed="16.67" length="8.79" shape="16.79,365.38 16.48,367.88 15.48,369.48 14.45,371.09 14.04,373.59"/>
    </edge>
    <edge id=":4604205289_0" function="internal">
        <lane id=":4604205289_0_0" index="0" disallow="tram rail_urban rail rail_electric rail_fast ship" speed="16.67" length="8.07" shape="-1.58,112.27 -1.84,114.69 -2.37,116.32 -2.86,117.95 -2.99,120.37"/>
        <lane id=":4604205289_0_1" index="1" disallow="tram rail_urban rail rail_electric rail_fast ship" speed="16.67" length="8.07" shape="-1.58,112.27 -1.34,114.65 -0.77,116.23 -0.16,117.82 0.21,120.20"/>
        <lane id=":4604205289_0_2" index="2" disallow="tram rail_urban rail rail_electric rail_fast ship" speed="16.67" length="8.07" shape="1.62,112.28 1.86,114.61 2.43,116.16 3.03,117.70 3.40,120.03"/>
        <lane id=":4604205289_0_3" index="3" disallow="tram rail_urban rail rail_electric rail_fast ship" speed="16.67" length="8.07" shape="4.82,112.30 5.06,114.57 5.63,116.08 6.23,117.59 6.60,119.86"/>
    </edge>
    <edge id=":4604216181_0" function="internal">
        <lane id=":4604216181_0_0" index="0" disallow="tram rail_urban rail rail_electric rail_fast ship" speed="13.89" length="14.99" shape="47.47,244.66 44.28,242.74 41.47,240.30 38.97,237.47 36.77,234.42"/>
    </edge>
    <edge id=":4604216181_1" function="internal">
        <lane id=":4604216181_1_0" index="0" disallow="tram rail_urban rail rail_electric rail_fast ship" speed="13.89" length="18.43" shape="47.47,244.66 43.62,242.73 39.31,240.29 35.22,237.56 32.05,234.73"/>
    </edge>
    <edge id=":4604216182_0" function="internal">
        <lane id=":4604216182_0_0" index="0" disallow="tram rail_urban rail rail_electric rail_fast ship" speed="14.35" length="6.45" shape="34.31,316.11 34.37,314.23 34.69,312.97 35.26,311.75 36.08,310.02"/>
    </edge>
    <edge id=":4604216182_1" function="internal">
        <lane id=":4604216182_1_0" index="0" disallow="tram rail_urban rail rail_electric rail_fast ship" speed="16.67" length="7.03" shape="31.11,316.21 31.28,314.15 31.75,312.77 32.21,311.38 32.36,309.32"/>
        <lane id=":4604216182_1_1" index="1" disallow="tram rail_urban rail rail_electric rail_fast ship" speed="16.67" length="7.03" shape="27.91,316.31 28.08,314.25 28.55,312.88 29.01,311.50 29.16,309.45"/>
        <lane id=":4604216182_1_2" index="2" disallow="tram rail_urban rail rail_electric rail_fast ship" speed="16.67" length="7.03" shape="24.71,316.40 24.88,314.36 25.35,312.99 25.81,311.61 25.97,309.57"/>
    </edge>
    <edge id=":4604218090_0" function="internal">
        <lane id=":4604218090_0_0" index="0" disallow="pedestrian tram rail_urban rail rail_electric rail_fast ship" speed="18.05" length="5.23" shape="9.34,286.67 9.08,288.29 8.92,289.41 8.87,290.54 8.92,292.18"/>
        <lane id=":4604218090_0_1" index="1" disallow="pedestrian tram rail_urban rail rail_electric rail_fast ship" speed="18.05" length="5.23" shape="12.50,287.13 12.27,288.57 12.13,289.56 12.07,290.56 12.11,292.02"/>
    </edge>
    <edge id=":4604218090_2" function="internal">
        <lane id=":4604218090_2_0" index="0" disallow="tram rail_urban rail rail_electric rail_fast ship" speed="16.67" length="8.72" shape="2.09,284.03 2.53,292.51"/>
        <lane id=":4604218090_2_1" index="1" disallow="tram rail_urban rail rail_electric rail_fast ship" speed="16.67" length="8.72" shape="5.27,283.39 5.72,292.34"/>
    </edge>
    <edge id=":4745180248_0" function="internal">
        <lane id=":4745180248_0_0" index="0" disallow="tram rail_urban rail rail_electric rail_fast ship" speed="16.67" length="7.60" shape="34.68,330.99 34.52,323.16"/>
        <lane id=":4745180248_0_1" index="1" disallow="tram rail_urban rail rail_electric rail_fast ship" speed="16.67" length="7.60" shape="31.48,331.01 31.32,323.33"/>
        <lane id=":4745180248_0_2" index="2" disallow="tram rail_urban rail rail_electric rail_fast ship" speed="16.67" length="7.60" shape="28.28,331.02 28.12,323.49"/>
        <lane id=":4745180248_0_3" index="3" disallow="tram rail_urban rail rail_electric rail_fast ship" speed="16.67" length="7.60" shape="25.08,331.03 24.93,323.66"/>
    </edge>
    <edge id=":4745180248_4" function="internal">
        <lane id=":4745180248_4_0" index="0" disallow="pedestrian tram rail_urban rail rail_electric rail_fast ship" speed="15.28" length="8.60" shape="25.08,331.03 25.75,328.67 27.15,327.18 28.31,325.73 28.26,323.49"/>
    </edge>
    <edge id=":4745180254_0" function="internal">
        <lane id=":4745180254_0_0" index="0" disallow="pedestrian tram rail_urban rail rail_electric rail_fast ship" speed="6.89" length="8.16" shape="18.13,319.77 14.70,320.56 12.28,321.56 10.88,322.79 10.49,324.24"/>
        <lane id=":4745180254_0_1" index="1" disallow="pedestrian tram rail_urban rail rail_electric rail_fast ship" speed="5.94" length="8.16" shape="18.13,319.77 16.09,320.34 14.66,321.23 13.86,322.45 13.68,324.00"/>
    </edge>
    <edge id=":4745180254_2" function="internal">
        <lane id=":4745180254_2_0" index="0" disallow="tram rail_urban rail rail_electric rail_fast ship" speed="16.67" length="6.76" shape="3.82,317.85 4.11,324.72"/>
        <lane id=":4745180254_2_1" index="1" disallow="tram rail_urban rail rail_electric rail_fast ship" speed="16.67" length="6.76" shape="7.02,317.69 7.30,324.48"/>
        <lane id=":4745180254_2_2" index="2" disallow="tram rail_urban rail rail_electric rail_fast ship" speed="16.67" length="6.76" shape="10.21,317.52 10.49,324.24"/>
        <lane id=":4745180254_2_3" index="3" disallow="tram rail_urban rail rail_electric rail_fast ship" speed="16.67" length="6.76" shape="13.41,317.36 13.68,324.00"/>
    </edge>
    <edge id=":5278383732_0" function="internal">
        <lane id=":5278383732_0_0" index="0" disallow="tram rail_urban rail rail_electric rail_fast ship" speed="13.09" length="12.35" shape="31.92,234.58 29.99,232.06 28.96,229.71 28.49,226.94 28.24,223.15"/>
    </edge>
    <edge id=":5278383732_1" function="internal">
        <lane id=":5278383732_1_0" index="0" disallow="tram rail_urban rail rail_electric rail_fast ship" speed="16.67" length="16.21" shape="29.01,239.36 28.24,223.15"/>
        <lane id=":5278383732_1_1" index="1" disallow="tram rail_urban rail rail_electric rail_fast ship" speed="16.67" length="16.21" shape="25.81,239.52 25.04,223.33"/>
        <lane id=":5278383732_1_2" index="2" disallow="tram rail_urban rail rail_electric rail_fast ship" speed="16.67" length="16.21" shape="22.62,239.68 21.85,223.52"/>
    </edge>
    <edge id=":6783569750_0" function="internal">
        <lane id=":6783569750_0_0" index="0" disallow="tram rail_urban rail rail_electric rail_fast ship" speed="16.67" length="7.81" shape="32.89,366.21 33.33,363.84 33.97,362.27 34.55,360.70 34.79,358.32"/>
        <lane id=":6783569750_0_1" index="1" disallow="tram rail_urban rail rail_electric rail_fast ship" speed="16.67" length="7.81" shape="29.70,365.95 30.13,363.66 30.77,362.15 31.35,360.63 31.59,358.33"/>
        <lane id=":6783569750_0_2" index="2" disallow="tram rail_urban rail rail_electric rail_fast ship" speed="16.67" length="7.81" shape="26.51,365.69 26.94,363.48 27.57,362.02 28.15,360.56 28.39,358.34"/>
        <lane id=":6783569750_0_3" index="3" disallow="tram rail_urban rail rail_electric rail_fast ship" speed="16.67" length="7.81" shape="26.51,365.69 26.43,363.50 25.97,362.03 25.45,360.55 25.19,358.36"/>
    </edge>

    <edge id="175540497" from="1884168718" to="4604218090" priority="7" type="highway.primary_link" spreadType="center" shape="27.06,255.72 21.69,260.20 18.73,263.51 15.79,268.33 12.94,275.32 11.27,284.49 8.05,306.53">
        <lane id="175540497_0" index="0" disallow="pedestrian tram rail_urban rail rail_electric rail_fast ship" speed="19.44" length="23.61" shape="16.94,263.37 14.36,267.61 11.40,274.87 9.69,284.23 9.34,286.67">
            <param key="origId" value="175540497"/>
        </lane>
        <lane id="175540497_1" index="1" disallow="pedestrian tram rail_urban rail rail_electric rail_fast ship" speed="19.44" length="23.61" shape="19.13,265.93 17.22,269.05 14.48,275.77 12.85,284.75 12.50,287.13">
            <param key="origId" value="175540497"/>
        </lane>
    </edge>
    <edge id="176204600" from="4604203477" to="4740012417" name="Woodlands Road" priority="12" type="highway.primary" spreadType="center" shape="18.56,126.78 17.52,110.68 17.51,93.38 18.33,73.99 19.93,56.08 27.34,0.00">
        <lane id="176204600_0" index="0" disallow="tram rail_urban rail rail_electric rail_fast ship" speed="16.67" length="123.39" shape="19.90,122.69 19.12,110.63 19.11,93.41 19.93,74.10 21.52,56.26 28.93,0.21">
            <param key="origId" value="176204600"/>
        </lane>
        <lane id="176204600_1" index="1" disallow="tram rail_urban rail rail_electric rail_fast ship" speed="16.67" length="123.39" shape="16.71,122.89 15.92,110.73 15.91,93.35 16.73,73.88 18.34,55.90 25.75,-0.21">
            <param key="origId" value="176204600"/>
        </lane>
    </edge>
    <edge id="176204639" from="4604216182" to="1867272410" priority="7" type="highway.primary_link" spreadType="center" shape="29.76,324.65 38.95,303.38 42.34,292.80 46.80,284.38 53.47,276.38 58.93,273.45 66.14,270.95 86.95,267.81">
        <lane id="176204639_0" index="0" disallow="tram rail_urban rail rail_electric rail_fast ship" speed="13.89" length="54.03" shape="36.08,310.02 38.95,303.38 42.34,292.80 46.80,284.38 53.47,276.38 58.93,273.45 66.14,270.95 68.04,270.66">
            <param key="origId" value="176204639"/>
        </lane>
    </edge>
    <edge id="176204641#0" from="244170103" to="4604216181" priority="7" type="highway.primary_link" spreadType="center" shape="73.89,252.20 51.93,246.77 46.10,244.01">
        <lane id="176204641#0_0" index="0" disallow="tram rail_urban rail rail_electric rail_fast ship" speed="13.89" length="0.20" shape="47.66,244.75 47.47,244.66">
            <param key="origId" value="176204641"/>
        </lane>
    </edge>
    <edge id="176204641#1" from="4604216181" to="1867527388" priority="7" type="highway.primary_link" spreadType="center" shape="46.10,244.01 40.16,238.83 37.84,236.03 34.90,231.62 32.96,227.17 31.43,220.36 23.76,201.27">
        <lane id="176204641#1_0" index="0" disallow="tram rail_urban rail rail_electric rail_fast ship" speed="13.89" length="30.42" shape="36.77,234.42 34.90,231.62 32.96,227.17 31.43,220.36 25.75,206.23">
            <param key="origId" value="176204641"/>
        </lane>
    </edge>
    <edge id="22753980" from="236725746" to="1884168718" name="Woodlands Road" priority="7" type="highway.primary_link" spreadType="center" shape="2.16,126.79 7.09,158.06 13.17,239.89 14.21,244.42 16.38,248.50 22.66,253.28 27.06,255.72">
        <lane id="22753980_0" index="0" disallow="pedestrian tram rail_urban rail rail_electric rail_fast ship" speed="19.44" length="90.99" shape="5.58,159.28 11.58,240.13 12.70,244.98 15.13,249.56 16.09,250.29">
            <param key="origId" value="22753980"/>
        </lane>
        <lane id="22753980_1" index="1" disallow="pedestrian tram rail_urban rail rail_electric rail_fast ship" speed="19.44" length="90.99" shape="8.75,158.78 14.76,239.65 15.72,243.86 17.69,247.49">
            <param key="origId" value="22753980"/>
        </lane>
    </edge>
    <edge id="481077009" from="4604205289" to="236725746" name="Woodlands Road" priority="12" type="highway.primary" spreadType="center">
        <lane id="481077009_0" index="0" disallow="tram rail_urban rail rail_electric rail_fast ship" speed="16.67" length="31.19" shape="-2.99,120.37 -1.34,151.51">
            <param key="origId" value="481077009"/>
        </lane>
        <lane id="481077009_1" index="1" disallow="tram rail_urban rail rail_electric rail_fast ship" speed="16.67" length="31.19" shape="0.21,120.20 1.86,151.35">
            <param key="origId" value="481077009"/>
        </lane>
        <lane id="481077009_2" index="2" disallow="tram rail_urban rail rail_electric rail_fast ship" speed="16.67" length="31.19" shape="3.40,120.03 5.05,151.18">
            <param key="origId" value="481077009"/>
        </lane>
        <lane id="481077009_3" index="3" disallow="tram rail_urban rail rail_electric rail_fast ship" speed="16.67" length="31.19" shape="6.60,119.86 8.25,151.01">
            <param key="origId" value="481077009"/>
        </lane>
    </edge>
    <edge id="481604607" from="4745180248" to="4745180254" priority="7" type="highway.primary_link" spreadType="center" shape="29.87,328.31 27.98,322.66 24.15,319.23 20.51,319.36 15.91,320.15 12.45,322.04 9.11,327.26">
        <lane id="481604607_0" index="0" disallow="pedestrian tram rail_urban rail rail_electric rail_fast ship" speed="13.89" length="12.07" shape="28.26,323.49 27.98,322.66 24.15,319.23 20.51,319.36 18.13,319.77">
            <param key="origId" value="481604607"/>
        </lane>
    </edge>
    <edge id="539429910" from="4745180254" to="4604203486" name="Woodlands Road" priority="12" type="highway.primary" spreadType="center">
        <lane id="539429910_0" index="0" disallow="tram rail_urban rail rail_electric rail_fast ship" speed="16.67" length="41.50" shape="4.11,324.72 7.22,366.10">
            <param key="origId" value="539429910"/>
        </lane>
        <lane id="539429910_1" index="1" disallow="tram rail_urban rail rail_electric rail_fast ship" speed="16.67" length="41.50" shape="7.30,324.48 10.41,365.86">
            <param key="origId" value="539429910"/>
        </lane>
        <lane id="539429910_2" index="2" disallow="tram rail_urban rail rail_electric rail_fast ship" speed="16.67" length="41.50" shape="10.49,324.24 13.60,365.62">
            <param key="origId" value="539429910"/>
        </lane>
        <lane id="539429910_3" index="3" disallow="tram rail_urban rail rail_electric rail_fast ship" speed="16.67" length="41.50" shape="13.68,324.00 16.79,365.38">
            <param key="origId" value="539429910"/>
        </lane>
    </edge>
    <edge id="539429911" from="4745180248" to="4604216182" name="Woodlands Road" priority="12" type="highway.primary" spreadType="center">
        <lane id="539429911_0" index="0" disallow="tram rail_urban rail rail_electric rail_fast ship" speed="16.67" length="7.15" shape="34.52,323.16 34.31,316.11">
            <param key="origId" value="539429911"/>
        </lane>
        <lane id="539429911_1" index="1" disallow="tram rail_urban rail rail_electric rail_fast ship" speed="16.67" length="7.15" shape="31.32,323.33 31.11,316.21">
            <param key="origId" value="539429911"/>
        </lane>
        <lane id="539429911_2" index="2" disallow="tram rail_urban rail rail_electric rail_fast ship" speed="16.67" length="7.15" shape="28.12,323.49 27.91,316.31">
            <param key="origId" value="539429911"/>
        </lane>
        <lane id="539429911_3" index="3" disallow="tram rail_urban rail rail_electric rail_fast ship" speed="16.67" length="7.15" shape="24.93,323.66 24.71,316.40">
            <param key="origId" value="539429911"/>
        </lane>
    </edge>
    <edge id="539429912#0" from="1884168718" to="5278383732" name="Woodlands Road" priority="12" type="highway.primary" spreadType="center" shape="27.06,255.72 26.03,243.91 24.80,219.15">
        <lane id="539429912#0_0" index="0" disallow="tram rail_urban rail rail_electric rail_fast ship" speed="16.67" length="4.54" shape="29.23,243.78 29.01,239.36">
            <param key="origId" value="539429912"/>
        </lane>
        <lane id="539429912#0_1" index="1" disallow="tram rail_urban rail rail_electric rail_fast ship" speed="16.67" length="4.54" shape="26.04,244.06 26.03,243.91 25.81,239.52">
            <param key="origId" value="539429912"/>
        </lane>
        <lane id="539429912#0_2" index="2" disallow="tram rail_urban rail rail_electric rail_fast ship" speed="16.67" length="4.54" shape="22.85,244.33 22.84,244.13 22.62,239.68">
            <param key="origId" value="539429912"/>
        </lane>
    </edge>
    <edge id="539429912#1" from="5278383732" to="1867527388" name="Woodlands Road" priority="12" type="highway.primary" spreadType="center">
        <lane id="539429912#1_0" index="0" disallow="tram rail_urban rail rail_electric rail_fast ship" speed="16.67" length="16.97" shape="28.24,223.15 27.25,206.10">
            <param key="origId" value="539429912"/>
        </lane>
        <lane id="539429912#1_1" index="1" disallow="tram rail_urban rail rail_electric rail_fast ship" speed="16.67" length="16.97" shape="25.04,223.33 24.06,206.39">
            <param key="origId" value="539429912"/>
        </lane>
        <lane id="539429912#1_2" index="2" disallow="tram rail_urban rail rail_electric rail_fast ship" speed="16.67" length="16.97" shape="21.85,223.52 20.87,206.68">
            <param key="origId" value="539429912"/>
        </lane>
    </edge>