<?xml version="1.0" encoding="UTF-8"?>

<!-- generated on 2023-07-14 15:20:27 by Eclipse SUMO netconvert Version 1.17.0
<configuration xmlns:xsi="http://www.w3.org/2001/XMLSchema-instance" xsi:noNamespaceSchemaLocation="http://sumo.dlr.de/xsd/netconvertConfiguration.xsd">

    <input>
        <sumo-net-file value="osm.net.xml.gz"/>
    </input>

    <output>
        <output-file value="osm.net.xml"/>
        <output.street-names value="true"/>
    </output>

    <processing>
        <geometry.min-radius.fix.railways value="false"/>
        <geometry.max-grade.fix value="false"/>
        <offset.disable-normalization value="true"/>
        <lefthand value="0"/>
    </processing>

    <junctions>
        <no-turnarounds value="true"/>
        <junctions.corner-detail value="5"/>
        <junctions.limit-turn-speed value="5.50"/>
        <rectangular-lane-cut value="0"/>
    </junctions>

    <pedestrian>
        <walkingareas value="0"/>
    </pedestrian>

</configuration>
-->

<net version="1.16" junctionCornerDetail="5" limitTurnSpeed="5.50" xmlns:xsi="http://www.w3.org/2001/XMLSchema-instance" xsi:noNamespaceSchemaLocation="http://sumo.dlr.de/xsd/net_file.xsd">

    <location netOffset="-362299.82,-143407.45" convBoundary="0.00,0.00,533.49,453.28" origBoundary="103.762303,1.297148,103.767099,1.301245" projParameter="+proj=utm +zone=48 +ellps=WGS84 +datum=WGS84 +units=m +no_defs"/>

    <type id="highway.bridleway" priority="1" numLanes="1" speed="2.78" allow="pedestrian" oneway="1" width="2.00"/>
    <type id="highway.bus_guideway" priority="1" numLanes="1" speed="27.78" allow="bus" oneway="1"/>
    <type id="highway.cycleway" priority="1" numLanes="1" speed="5.56" allow="bicycle" oneway="0" width="1.00"/>
    <type id="highway.footway" priority="1" numLanes="1" speed="2.78" allow="pedestrian" oneway="1" width="2.00"/>
    <type id="highway.ford" priority="1" numLanes="1" speed="2.78" allow="army" oneway="0"/>
    <type id="highway.living_street" priority="2" numLanes="1" speed="2.78" disallow="tram rail_urban rail rail_electric rail_fast ship" oneway="0"/>
    <type id="highway.motorway" priority="14" numLanes="2" speed="39.44" allow="private emergency authority army vip passenger hov taxi bus coach delivery truck trailer motorcycle evehicle custom1 custom2" oneway="1"/>
    <type id="highway.motorway_link" priority="9" numLanes="1" speed="22.22" allow="private emergency authority army vip passenger hov taxi bus coach delivery truck trailer motorcycle evehicle custom1 custom2" oneway="1"/>
    <type id="highway.path" priority="1" numLanes="1" speed="5.56" allow="pedestrian bicycle" oneway="0" width="2.00"/>
    <type id="highway.pedestrian" priority="1" numLanes="1" speed="2.78" allow="pedestrian" oneway="1" width="2.00"/>
    <type id="highway.primary" priority="12" numLanes="2" speed="27.78" disallow="tram rail_urban rail rail_electric rail_fast ship" oneway="0"/>
    <type id="highway.primary_link" priority="7" numLanes="1" speed="22.22" disallow="tram rail_urban rail rail_electric rail_fast ship" oneway="0"/>
    <type id="highway.raceway" priority="15" numLanes="2" speed="83.33" allow="vip" oneway="0"/>
    <type id="highway.residential" priority="3" numLanes="1" speed="13.89" disallow="tram rail_urban rail rail_electric rail_fast ship" oneway="0"/>
    <type id="highway.secondary" priority="11" numLanes="1" speed="27.78" disallow="tram rail_urban rail rail_electric rail_fast ship" oneway="0"/>
    <type id="highway.secondary_link" priority="6" numLanes="1" speed="22.22" disallow="tram rail_urban rail rail_electric rail_fast ship" oneway="0"/>
    <type id="highway.service" priority="1" numLanes="1" speed="5.56" allow="pedestrian delivery bicycle" oneway="0"/>
    <type id="highway.stairs" priority="1" numLanes="1" speed="1.39" allow="pedestrian" oneway="1" width="2.00"/>
    <type id="highway.step" priority="1" numLanes="1" speed="1.39" allow="pedestrian" oneway="1" width="2.00"/>
    <type id="highway.steps" priority="1" numLanes="1" speed="1.39" allow="pedestrian" oneway="1" width="2.00"/>
    <type id="highway.tertiary" priority="10" numLanes="1" speed="22.22" disallow="tram rail_urban rail rail_electric rail_fast ship" oneway="0"/>
    <type id="highway.tertiary_link" priority="5" numLanes="1" speed="22.22" disallow="tram rail_urban rail rail_electric rail_fast ship" oneway="0"/>
    <type id="highway.track" priority="1" numLanes="1" speed="5.56" allow="pedestrian motorcycle moped bicycle" oneway="0"/>
    <type id="highway.trunk" priority="13" numLanes="2" speed="27.78" disallow="pedestrian bicycle tram rail_urban rail rail_electric rail_fast ship" oneway="0"/>
    <type id="highway.trunk_link" priority="8" numLanes="1" speed="22.22" disallow="pedestrian bicycle tram rail_urban rail rail_electric rail_fast ship" oneway="0"/>
    <type id="highway.unclassified" priority="4" numLanes="1" speed="13.89" disallow="tram rail_urban rail rail_electric rail_fast ship" oneway="0"/>
    <type id="highway.unsurfaced" priority="1" numLanes="1" speed="8.33" disallow="tram rail_urban rail rail_electric rail_fast ship" oneway="0"/>
    <type id="railway.highspeed" priority="21" numLanes="1" speed="69.44" allow="rail_fast" oneway="1"/>
    <type id="railway.light_rail" priority="19" numLanes="1" speed="27.78" allow="rail_urban" oneway="1"/>
    <type id="railway.preserved" priority="16" numLanes="1" speed="27.78" allow="rail" oneway="1"/>
    <type id="railway.rail" priority="20" numLanes="1" speed="44.44" allow="rail" oneway="1"/>
    <type id="railway.subway" priority="18" numLanes="1" speed="27.78" allow="rail_urban" oneway="1"/>
    <type id="railway.tram" priority="17" numLanes="1" speed="13.89" allow="tram" oneway="1"/>

    <edge id=":2507343608_0" function="internal">
        <lane id=":2507343608_0_0" index="0" disallow="pedestrian bicycle tram rail_urban rail rail_electric rail_fast ship" speed="19.44" length="23.09" shape="129.00,203.52 138.55,182.45"/>
        <lane id=":2507343608_0_1" index="1" disallow="pedestrian bicycle tram rail_urban rail rail_electric rail_fast ship" speed="19.44" length="23.09" shape="131.92,204.84 141.44,183.81"/>
        <lane id=":2507343608_0_2" index="2" disallow="pedestrian bicycle tram rail_urban rail rail_electric rail_fast ship" speed="19.44" length="23.09" shape="134.83,206.16 144.34,185.17"/>
    </edge>
    <edge id=":2507343608_3" function="internal">
        <lane id=":2507343608_3_0" index="0" disallow="pedestrian bicycle tram rail_urban rail rail_electric rail_fast ship" speed="14.89" length="23.34" shape="140.78,207.04 138.93,201.45 138.42,195.71 139.26,189.83 141.44,183.81"/>
        <lane id=":2507343608_3_1" index="1" disallow="pedestrian bicycle tram rail_urban rail rail_electric rail_fast ship" speed="14.49" length="23.34" shape="144.35,207.14 142.44,201.60 141.80,196.09 142.43,190.61 144.34,185.17"/>
    </edge>
    <edge id=":2507343620_0" function="internal">
        <lane id=":2507343620_0_0" index="0" disallow="tram rail_urban rail rail_electric rail_fast ship" speed="13.89" length="17.47" shape="140.33,232.40 156.93,237.61"/>
        <lane id=":2507343620_0_1" index="1" disallow="tram rail_urban rail rail_electric rail_fast ship" speed="13.89" length="17.47" shape="139.39,235.46 156.12,240.71"/>
    </edge>
    <edge id=":2507343620_2" function="internal">
        <lane id=":2507343620_2_0" index="0" disallow="pedestrian bicycle tram rail_urban rail rail_electric rail_fast ship" speed="13.89" length="17.61" shape="138.71,240.17 142.31,239.49 146.09,239.21 150.53,239.55 156.12,240.71"/>
    </edge>
    <edge id=":2507343621_0" function="internal">
        <lane id=":2507343621_0_0" index="0" disallow="tram rail_urban rail rail_electric rail_fast ship" speed="13.89" length="18.61" shape="160.52,235.88 155.30,234.08 151.89,232.38 148.51,230.61 143.35,228.60"/>
        <lane id=":2507343621_0_1" index="1" disallow="tram rail_urban rail rail_electric rail_fast ship" speed="13.89" length="18.61" shape="161.39,232.80 156.21,231.01 152.83,229.32 149.47,227.56 144.36,225.56"/>
    </edge>
    <edge id=":2507343621_2" function="internal">
        <lane id=":2507343621_2_0" index="0" disallow="pedestrian bicycle tram rail_urban rail rail_electric rail_fast ship" speed="13.88" length="18.77" shape="161.39,232.80 157.23,231.11 153.54,228.56 150.33,225.13 147.60,220.83"/>
        <lane id=":2507343621_2_1" index="1" disallow="pedestrian bicycle tram rail_urban rail rail_electric rail_fast ship" speed="13.27" length="17.11" shape="162.26,229.72 158.69,228.22 155.45,225.85 152.54,222.60 149.97,218.48"/>
    </edge>
    <edge id=":2507343628_0" function="internal">
        <lane id=":2507343628_0_0" index="0" disallow="pedestrian bicycle tram rail_urban rail rail_electric rail_fast ship" speed="19.44" length="9.41" shape="103.06,250.41 104.50,248.03 105.92,246.66 107.36,245.31 108.87,242.96"/>
        <lane id=":2507343628_0_1" index="1" disallow="pedestrian bicycle tram rail_urban rail rail_electric rail_fast ship" speed="19.44" length="9.41" shape="105.97,251.73 107.40,249.37 108.82,248.03 110.25,246.69 111.75,244.36"/>
        <lane id=":2507343628_0_2" index="2" disallow="pedestrian bicycle tram rail_urban rail rail_electric rail_fast ship" speed="19.44" length="9.41" shape="108.88,253.06 110.30,250.72 111.71,249.39 113.14,248.07 114.63,245.76"/>
        <lane id=":2507343628_0_3" index="3" disallow="pedestrian bicycle tram rail_urban rail rail_electric rail_fast ship" speed="19.44" length="9.41" shape="111.79,254.38 113.21,252.07 114.61,250.75 116.03,249.44 117.50,247.16"/>
    </edge>
    <edge id=":2507343628_4" function="internal">
        <lane id=":2507343628_4_0" index="0" disallow="pedestrian bicycle tram rail_urban rail rail_electric rail_fast ship" speed="13.94" length="8.77" shape="114.71,255.71 115.89,253.44 117.03,252.08 118.48,250.97 120.62,249.48"/>
    </edge>
    <edge id=":4734929575_0" function="internal">
        <lane id=":4734929575_0_0" index="0" disallow="tram rail_urban rail rail_electric rail_fast ship" speed="12.50" length="0.30" shape="439.58,378.69 439.47,378.96"/>
        <lane id=":4734929575_0_1" index="1" disallow="tram rail_urban rail rail_electric rail_fast ship" speed="12.50" length="0.30" shape="436.62,377.47 436.50,377.76"/>
    </edge>
    <edge id=":5231022744_0" function="internal">
        <lane id=":5231022744_0_0" index="0" disallow="tram rail_urban rail rail_electric rail_fast ship" speed="13.89" length="8.41" shape="326.50,199.40 325.85,201.84 326.15,203.71 326.43,205.58 325.75,208.00"/>
        <lane id=":5231022744_0_1" index="1" disallow="tram rail_urban rail rail_electric rail_fast ship" speed="13.89" length="8.41" shape="326.50,199.40 322.90,206.55"/>
    </edge>
    <edge id=":5231022744_2" function="internal">
        <lane id=":5231022744_2_0" index="0" disallow="tram rail_urban rail rail_electric rail_fast ship" speed="13.89" length="7.96" shape="320.05,205.09 323.63,197.98"/>
    </edge>
    <edge id=":6977216895_0" function="internal">
        <lane id=":6977216895_0_0" index="0" disallow="pedestrian bicycle tram rail_urban rail rail_electric rail_fast ship" speed="19.44" length="8.64" shape="85.92,295.65 86.51,293.24 86.16,291.40 85.79,289.55 86.35,287.12"/>
        <lane id=":6977216895_0_1" index="1" disallow="pedestrian bicycle tram rail_urban rail rail_electric rail_fast ship" speed="19.44" length="8.64" shape="88.81,297.02 89.41,294.59 89.06,292.74 88.70,290.89 89.26,288.45"/>
        <lane id=":6977216895_0_2" index="2" disallow="pedestrian bicycle tram rail_urban rail rail_electric rail_fast ship" speed="19.44" length="8.64" shape="91.71,298.39 92.31,295.95 91.96,294.09 91.61,292.23 92.17,289.77"/>
        <lane id=":6977216895_0_3" index="3" disallow="pedestrian bicycle tram rail_urban rail rail_electric rail_fast ship" speed="19.44" length="8.64" shape="91.71,298.39 95.09,291.10"/>
        <lane id=":6977216895_0_4" index="4" disallow="pedestrian bicycle tram rail_urban rail rail_electric rail_fast ship" speed="19.44" length="8.64" shape="91.71,298.39 93.22,296.36 94.87,295.42 96.52,294.47 98.00,292.42"/>
    </edge>
    <edge id=":6979626273_0" function="internal">
        <lane id=":6979626273_0_0" index="0" disallow="tram rail_urban rail rail_electric rail_fast ship" speed="13.89" length="8.21" shape="190.74,242.80 188.38,242.38 186.69,242.46 185.00,242.55 182.63,242.14"/>
        <lane id=":6979626273_0_1" index="1" disallow="tram rail_urban rail rail_electric rail_fast ship" speed="13.89" length="8.21" shape="191.64,239.73 189.26,239.30 187.57,239.39 185.88,239.47 183.50,239.06"/>
        <lane id=":6979626273_0_2" index="2" disallow="tram rail_urban rail rail_electric rail_fast ship" speed="13.89" length="8.21" shape="191.64,239.73 189.40,238.82 188.01,237.85 186.62,236.88 184.37,235.98"/>
    </edge>
    <edge id=":6979626276_0" function="internal">
        <lane id=":6979626276_0_0" index="0" disallow="tram rail_urban rail rail_electric rail_fast ship" speed="12.50" length="8.18" shape="452.46,370.75 453.12,368.42 453.21,366.72 453.32,365.03 454.03,362.72"/>
        <lane id=":6979626276_0_1" index="1" disallow="tram rail_urban rail rail_electric rail_fast ship" speed="12.50" length="8.18" shape="455.43,371.94 456.08,369.63 456.17,367.94 456.28,366.26 456.98,363.97"/>
        <lane id=":6979626276_0_2" index="2" disallow="tram rail_urban rail rail_electric rail_fast ship" speed="12.50" length="8.18" shape="455.43,371.94 456.54,369.83 457.65,368.56 458.77,367.31 459.92,365.22"/>
    </edge>
    <edge id=":cluster_246294549_2507343614_2516024456_889402500_0" function="internal">
        <lane id=":cluster_246294549_2507343614_2516024456_889402500_0_0" index="0" disallow="pedestrian bicycle tram rail_urban rail rail_electric rail_fast ship" speed="8.36" length="13.62" shape="123.16,222.48 118.67,221.56 115.12,221.64 112.50,222.72 110.82,224.79"/>
    </edge>
    <edge id=":cluster_246294549_2507343614_2516024456_889402500_1" function="internal">
        <lane id=":cluster_246294549_2507343614_2516024456_889402500_1_0" index="0" disallow="tram rail_urban rail rail_electric rail_fast ship" speed="5.90" length="7.90" shape="124.11,219.42 127.18,223.21 127.67,226.19"/>
    </edge>
    <edge id=":cluster_246294549_2507343614_2516024456_889402500_2" function="internal">
        <lane id=":cluster_246294549_2507343614_2516024456_889402500_2_0" index="0" disallow="pedestrian bicycle tram rail_urban rail rail_electric rail_fast ship" speed="9.59" length="18.21" shape="124.11,219.42 118.38,218.32 113.77,218.63 110.29,220.33 107.93,223.42"/>
    </edge>
    <edge id=":cluster_246294549_2507343614_2516024456_889402500_13" function="internal">
        <lane id=":cluster_246294549_2507343614_2516024456_889402500_13_0" index="0" disallow="tram rail_urban rail rail_electric rail_fast ship" speed="5.90" length="7.90" shape="127.67,226.19 125.57,228.38 120.90,229.76"/>
    </edge>
    <edge id=":cluster_246294549_2507343614_2516024456_889402500_3" function="internal">
        <lane id=":cluster_246294549_2507343614_2516024456_889402500_3_0" index="0" disallow="pedestrian bicycle tram rail_urban rail rail_electric rail_fast ship" speed="7.31" length="12.91" shape="116.08,217.33 115.27,220.40 115.96,222.98 118.15,225.08 121.84,226.70"/>
        <lane id=":cluster_246294549_2507343614_2516024456_889402500_3_1" index="1" disallow="pedestrian bicycle tram rail_urban rail rail_electric rail_fast ship" speed="8.01" length="15.73" shape="116.08,217.33 114.70,221.68 115.03,225.20 117.10,227.90 120.90,229.76"/>
    </edge>
    <edge id=":cluster_246294549_2507343614_2516024456_889402500_5" function="internal">
        <lane id=":cluster_246294549_2507343614_2516024456_889402500_5_0" index="0" disallow="pedestrian bicycle tram rail_urban rail rail_electric rail_fast ship" speed="19.44" length="9.14" shape="116.08,217.33 114.71,219.66 113.45,221.06 112.19,222.46 110.82,224.79"/>
        <lane id=":cluster_246294549_2507343614_2516024456_889402500_5_1" index="1" disallow="pedestrian bicycle tram rail_urban rail rail_electric rail_fast ship" speed="19.44" length="9.14" shape="113.18,215.99 111.81,218.31 110.55,219.71 109.30,221.10 107.93,223.42"/>
        <lane id=":cluster_246294549_2507343614_2516024456_889402500_5_2" index="2" disallow="pedestrian bicycle tram rail_urban rail rail_electric rail_fast ship" speed="19.44" length="9.14" shape="110.27,214.65 108.91,216.96 107.66,218.35 106.40,219.74 105.04,222.05"/>
    </edge>
    <edge id=":cluster_246294549_2507343614_2516024456_889402500_8" function="internal">
        <lane id=":cluster_246294549_2507343614_2516024456_889402500_8_0" index="0" disallow="pedestrian bicycle tram rail_urban rail rail_electric rail_fast ship" speed="8.13" length="16.09" shape="107.36,213.32 115.82,208.11 121.98,207.91"/>
    </edge>
    <edge id=":cluster_246294549_2507343614_2516024456_889402500_14" function="internal">
        <lane id=":cluster_246294549_2507343614_2516024456_889402500_14_0" index="0" disallow="pedestrian bicycle tram rail_urban rail rail_electric rail_fast ship" speed="8.13" length="16.09" shape="121.98,207.91 125.83,212.72 127.39,222.53"/>
    </edge>
    <edge id=":cluster_246294549_2507343614_2516024456_889402500_9" function="internal">
        <lane id=":cluster_246294549_2507343614_2516024456_889402500_9_0" index="0" disallow="pedestrian bicycle tram rail_urban rail rail_electric rail_fast ship" speed="19.44" length="9.24" shape="116.42,227.44 117.80,225.10 119.03,223.66 120.24,222.22 121.57,219.85"/>
        <lane id=":cluster_246294549_2507343614_2516024456_889402500_9_1" index="1" disallow="pedestrian bicycle tram rail_urban rail rail_electric rail_fast ship" speed="19.44" length="9.24" shape="119.31,228.81 120.70,226.46 121.93,225.02 123.14,223.56 124.48,221.19"/>
        <lane id=":cluster_246294549_2507343614_2516024456_889402500_9_2" index="2" disallow="pedestrian bicycle tram rail_urban rail rail_electric rail_fast ship" speed="19.44" length="9.24" shape="122.20,230.18 123.59,227.82 124.83,226.37 126.05,224.91 127.39,222.53"/>
    </edge>
    <edge id=":cluster_246294549_2507343614_2516024456_889402500_12" function="internal">
        <lane id=":cluster_246294549_2507343614_2516024456_889402500_12_0" index="0" disallow="pedestrian bicycle tram rail_urban rail rail_electric rail_fast ship" speed="8.16" length="16.20" shape="125.09,231.55 116.52,236.69 110.32,236.83"/>
    </edge>
    <edge id=":cluster_246294549_2507343614_2516024456_889402500_15" function="internal">
        <lane id=":cluster_246294549_2507343614_2516024456_889402500_15_0" index="0" disallow="pedestrian bicycle tram rail_urban rail rail_electric rail_fast ship" speed="8.16" length="16.20" shape="110.32,236.83 106.49,231.95 105.04,222.05"/>
    </edge>
    <edge id=":cluster_246612242_2507343630_2507343631_2516876533_0" function="internal">
        <lane id=":cluster_246612242_2507343630_2507343631_2516876533_0_0" index="0" disallow="tram rail_urban rail rail_electric rail_fast ship" speed="13.89" length="13.77" shape="468.85,306.94 463.73,319.73"/>
    </edge>
    <edge id=":cluster_246612242_2507343630_2507343631_2516876533_1" function="internal">
        <lane id=":cluster_246612242_2507343630_2507343631_2516876533_1_0" index="0" disallow="tram rail_urban rail rail_electric rail_fast ship" speed="7.07" length="11.69" shape="465.93,305.62 472.05,301.80 476.52,301.62"/>
    </edge>
    <edge id=":cluster_246612242_2507343630_2507343631_2516876533_2" function="internal">
        <lane id=":cluster_246612242_2507343630_2507343631_2516876533_2_0" index="0" disallow="tram rail_urban rail rail_electric rail_fast ship" speed="13.89" length="13.88" shape="465.93,305.62 460.77,318.51"/>
    </edge>
    <edge id=":cluster_246612242_2507343630_2507343631_2516876533_3" function="internal">
        <lane id=":cluster_246612242_2507343630_2507343631_2516876533_3_0" index="0" disallow="tram rail_urban rail rail_electric rail_fast ship" speed="5.03" length="4.57" shape="465.93,305.62 465.38,307.33 465.18,308.59 465.35,309.42 465.86,309.82"/>
    </edge>
    <edge id=":cluster_246612242_2507343630_2507343631_2516876533_12" function="internal">
        <lane id=":cluster_246612242_2507343630_2507343631_2516876533_12_0" index="0" disallow="tram rail_urban rail rail_electric rail_fast ship" speed="7.07" length="11.69" shape="476.52,301.62 479.35,305.08 480.53,312.20"/>
    </edge>
    <edge id=":cluster_246612242_2507343630_2507343631_2516876533_4" function="internal">
        <lane id=":cluster_246612242_2507343630_2507343631_2516876533_4_0" index="0" disallow="tram rail_urban rail rail_electric rail_fast ship" speed="9.31" length="17.10" shape="463.77,317.87 468.22,318.38 472.00,317.38 475.13,314.89 477.61,310.89"/>
    </edge>
    <edge id=":cluster_246612242_2507343630_2507343631_2516876533_5" function="internal">
        <lane id=":cluster_246612242_2507343630_2507343631_2516876533_5_0" index="0" disallow="tram rail_urban rail rail_electric rail_fast ship" speed="6.05" length="8.41" shape="462.97,320.96 459.51,317.09 458.84,313.95"/>
    </edge>
    <edge id=":cluster_246612242_2507343630_2507343631_2516876533_6" function="internal">
        <lane id=":cluster_246612242_2507343630_2507343631_2516876533_6_0" index="0" disallow="tram rail_urban rail rail_electric rail_fast ship" speed="10.42" length="21.65" shape="462.97,320.96 468.62,321.62 473.43,320.38 477.40,317.24 480.53,312.20"/>
    </edge>
    <edge id=":cluster_246612242_2507343630_2507343631_2516876533_7" function="internal">
        <lane id=":cluster_246612242_2507343630_2507343631_2516876533_7_0" index="0" disallow="tram rail_urban rail rail_electric rail_fast ship" speed="4.35" length="3.79" shape="462.97,320.96 461.75,320.53 460.97,319.97 460.65,319.30 460.77,318.51"/>
    </edge>
    <edge id=":cluster_246612242_2507343630_2507343631_2516876533_13" function="internal">
        <lane id=":cluster_246612242_2507343630_2507343631_2516876533_13_0" index="0" disallow="tram rail_urban rail rail_electric rail_fast ship" speed="6.05" length="8.41" shape="458.84,313.95 460.96,311.52 465.86,309.82"/>
    </edge>
    <edge id=":cluster_246612242_2507343630_2507343631_2516876533_8" function="internal">
        <lane id=":cluster_246612242_2507343630_2507343631_2516876533_8_0" index="0" disallow="tram rail_urban rail rail_electric rail_fast ship" speed="7.44" length="13.51" shape="471.00,322.70 471.81,319.31 471.09,316.55 468.84,314.42 465.06,312.92"/>
    </edge>
    <edge id=":cluster_246612242_2507343630_2507343631_2516876533_9" function="internal">
        <lane id=":cluster_246612242_2507343630_2507343631_2516876533_9_0" index="0" disallow="tram rail_urban rail rail_electric rail_fast ship" speed="13.89" length="13.50" shape="471.00,322.70 472.76,319.10 474.25,316.77 475.77,314.46 477.61,310.89"/>
        <lane id=":cluster_246612242_2507343630_2507343631_2516876533_9_1" index="1" disallow="tram rail_urban rail rail_electric rail_fast ship" speed="13.89" length="13.50" shape="473.96,323.92 475.70,320.34 477.19,318.04 478.70,315.75 480.53,312.20"/>
    </edge>
    <edge id=":cluster_246612242_2507343630_2507343631_2516876533_11" function="internal">
        <lane id=":cluster_246612242_2507343630_2507343631_2516876533_11_0" index="0" disallow="tram rail_urban rail rail_electric rail_fast ship" speed="7.30" length="12.75" shape="476.92,325.13 470.40,329.53 465.54,329.90"/>
    </edge>
    <edge id=":cluster_246612242_2507343630_2507343631_2516876533_14" function="internal">
        <lane id=":cluster_246612242_2507343630_2507343631_2516876533_14_0" index="0" disallow="tram rail_urban rail rail_electric rail_fast ship" speed="7.30" length="12.75" shape="465.54,329.90 462.33,326.22 460.77,318.51"/>
    </edge>
    <edge id=":cluster_246612279_2516024457_0" function="internal">
        <lane id=":cluster_246612279_2516024457_0_0" index="0" disallow="tram rail_urban rail rail_electric rail_fast ship" speed="13.89" length="17.86" shape="300.10,270.37 282.76,266.05"/>
    </edge>
    <edge id=":cluster_246612279_2516024457_1" function="internal">
        <lane id=":cluster_246612279_2516024457_1_0" index="0" disallow="tram rail_urban rail rail_electric rail_fast ship" speed="5.73" length="7.45" shape="300.89,267.27 303.96,270.69 304.57,273.47"/>
    </edge>
    <edge id=":cluster_246612279_2516024457_2" function="internal">
        <lane id=":cluster_246612279_2516024457_2_0" index="0" disallow="tram rail_urban rail rail_electric rail_fast ship" speed="13.89" length="17.92" shape="300.89,267.27 283.50,262.93"/>
    </edge>
    <edge id=":cluster_246612279_2516024457_3" function="internal">
        <lane id=":cluster_246612279_2516024457_3_0" index="0" disallow="tram rail_urban rail rail_electric rail_fast ship" speed="6.66" length="9.77" shape="300.89,267.27 298.76,266.83 295.07,266.05 291.64,265.15 291.40,265.01"/>
    </edge>
    <edge id=":cluster_246612279_2516024457_10" function="internal">
        <lane id=":cluster_246612279_2516024457_10_0" index="0" disallow="tram rail_urban rail rail_electric rail_fast ship" speed="5.73" length="7.45" shape="304.57,273.47 302.70,275.63 298.36,277.15"/>
    </edge>
    <edge id=":cluster_246612279_2516024457_11" function="internal">
        <lane id=":cluster_246612279_2516024457_11_0" index="0" disallow="tram rail_urban rail rail_electric rail_fast ship" speed="6.66" length="1.28" shape="291.40,265.01 290.31,264.36"/>
    </edge>
    <edge id=":cluster_246612279_2516024457_4" function="internal">
        <lane id=":cluster_246612279_2516024457_4_0" index="0" disallow="tram rail_urban rail rail_electric rail_fast ship" speed="6.09" length="9.06" shape="296.03,267.22 295.22,269.65 295.47,271.60 296.78,273.07 299.15,274.05"/>
    </edge>
    <edge id=":cluster_246612279_2516024457_5" function="internal">
        <lane id=":cluster_246612279_2516024457_5_0" index="0" disallow="tram rail_urban rail rail_electric rail_fast ship" speed="7.49" length="10.14" shape="293.17,265.79 291.61,265.75 288.53,264.78 285.36,263.60 283.50,262.93"/>
    </edge>
    <edge id=":cluster_246612279_2516024457_6" function="internal">
        <lane id=":cluster_246612279_2516024457_6_0" index="0" disallow="tram rail_urban rail rail_electric rail_fast ship" speed="7.71" length="10.85" shape="281.89,269.72 284.33,269.85 286.55,269.00 288.54,267.17 290.31,264.36"/>
    </edge>
    <edge id=":cluster_246612279_2516024457_7" function="internal">
        <lane id=":cluster_246612279_2516024457_7_0" index="0" disallow="tram rail_urban rail rail_electric rail_fast ship" speed="13.89" length="17.81" shape="281.89,269.72 299.15,274.05"/>
    </edge>
    <edge id=":cluster_246612279_2516024457_8" function="internal">
        <lane id=":cluster_246612279_2516024457_8_0" index="0" disallow="tram rail_urban rail rail_electric rail_fast ship" speed="5.73" length="7.43" shape="281.14,272.83 278.02,269.47 277.38,266.70"/>
    </edge>
    <edge id=":cluster_246612279_2516024457_9" function="internal">
        <lane id=":cluster_246612279_2516024457_9_0" index="0" disallow="tram rail_urban rail rail_electric rail_fast ship" speed="13.89" length="17.75" shape="281.14,272.83 298.36,277.15"/>
    </edge>
    <edge id=":cluster_246612279_2516024457_12" function="internal">
        <lane id=":cluster_246612279_2516024457_12_0" index="0" disallow="tram rail_urban rail rail_electric rail_fast ship" speed="5.73" length="7.43" shape="277.38,266.70 279.20,264.52 283.50,262.93"/>
    </edge>

    <edge id="-632204606" from="cluster_246612279_2516024457" to="5231022744" name="West Coast Crescent" priority="3" type="highway.residential" shape="291.08,266.39 294.41,259.73 318.52,211.59 323.30,202.26">
        <lane id="-632204606_0" index="0" disallow="tram rail_urban rail rail_electric rail_fast ship" speed="13.89" length="66.32" shape="290.31,264.36 292.98,259.01 317.09,210.87 320.05,205.09">
            <param key="origId" value="632204606 829210634 632943375"/>
        </lane>
        <param key="origFrom" value="246612279"/>
    </edge>
    <edge id="-639901585" from="5231022744" to="5120572425" name="West Coast Crescent" priority="3" type="highway.residential" shape="323.30,202.26 332.16,184.34 336.10,176.47 342.34,163.45">
        <lane id="-639901585_0" index="0" disallow="tram rail_urban rail rail_electric rail_fast ship" speed="13.89" length="39.23" shape="323.63,197.98 330.73,183.63 334.66,175.77 340.90,162.76">
            <param key="origId" value="639901585 636851335"/>
        </lane>
    </edge>
    <edge id="243309367" from="2507343620" to="cluster_246612279_2516024457" name="West Coast Link" priority="11" type="highway.secondary" spreadType="center" shape="159.75,240.00 184.46,246.43 219.90,256.17 288.81,273.06">
        <lane id="243309367_0" index="0" disallow="tram rail_urban rail rail_electric rail_fast ship" speed="13.89" length="129.06" shape="156.93,237.61 184.87,244.88 220.30,254.62 281.89,269.72">
            <param key="origId" value="243309367 745687344"/>
        </lane>
        <lane id="243309367_1" index="1" disallow="tram rail_urban rail rail_electric rail_fast ship" speed="13.89" length="129.06" shape="156.12,240.71 184.05,247.98 219.50,257.72 281.14,272.83">
            <param key="origId" value="243309367 745687344"/>
        </lane>
        <param key="origTo" value="2516024457"/>
    </edge>
    <edge id="243309368" from="2507343621" to="2507343608" priority="8" type="highway.trunk_link" spreadType="center" shape="159.53,232.27 154.38,227.16 152.43,224.94 149.75,221.49 145.26,212.96 141.31,204.35 140.41,197.06 141.20,184.33">