<?xml version="1.0" encoding="UTF-8"?>

<!-- generated on 2023-07-14 10:45:37 by Eclipse SUMO netconvert Version 1.17.0
<configuration xmlns:xsi="http://www.w3.org/2001/XMLSchema-instance" xsi:noNamespaceSchemaLocation="http://sumo.dlr.de/xsd/netconvertConfiguration.xsd">

    <input>
        <sumo-net-file value="osm.net.xml.gz"/>
    </input>

    <output>
        <output-file value="osm.net.xml"/>
        <output.street-names value="true"/>
    </output>

    <processing>
        <geometry.min-radius.fix.railways value="false"/>
        <geometry.max-grade.fix value="false"/>
        <offset.disable-normalization value="true"/>
        <lefthand value="1"/>
    </processing>

    <junctions>
        <no-turnarounds value="true"/>
        <junctions.corner-detail value="5"/>
        <junctions.limit-turn-speed value="5.50"/>
        <rectangular-lane-cut value="0"/>
    </junctions>

    <pedestrian>
        <walkingareas value="0"/>
    </pedestrian>

</configuration>
-->

<net version="1.16" junctionCornerDetail="5" lefthand="true" limitTurnSpeed="5.50" xmlns:xsi="http://www.w3.org/2001/XMLSchema-instance" xsi:noNamespaceSchemaLocation="http://sumo.dlr.de/xsd/net_file.xsd">

    <location netOffset="-366369.47,-155991.40" convBoundary="0.00,0.00,1816.76,1027.28" origBoundary="103.798818,1.410993,103.815150,1.420280" projParameter="+proj=utm +zone=48 +ellps=WGS84 +datum=WGS84 +units=m +no_defs"/>

    <type id="highway.bridleway" priority="1" numLanes="1" speed="2.78" allow="pedestrian" oneway="1" width="2.00"/>
    <type id="highway.bus_guideway" priority="1" numLanes="1" speed="27.78" allow="bus" oneway="1"/>
    <type id="highway.cycleway" priority="1" numLanes="1" speed="5.56" allow="bicycle" oneway="0" width="1.00"/>
    <type id="highway.footway" priority="1" numLanes="1" speed="2.78" allow="pedestrian" oneway="1" width="2.00"/>
    <type id="highway.ford" priority="1" numLanes="1" speed="2.78" allow="army" oneway="0"/>
    <type id="highway.living_street" priority="2" numLanes="1" speed="2.78" disallow="tram rail_urban rail rail_electric rail_fast ship" oneway="0"/>
    <type id="highway.motorway" priority="14" numLanes="2" speed="39.44" allow="private emergency authority army vip passenger hov taxi bus coach delivery truck trailer motorcycle evehicle custom1 custom2" oneway="1"/>
    <type id="highway.motorway_link" priority="9" numLanes="1" speed="22.22" allow="private emergency authority army vip passenger hov taxi bus coach delivery truck trailer motorcycle evehicle custom1 custom2" oneway="1"/>
    <type id="highway.path" priority="1" numLanes="1" speed="5.56" allow="pedestrian bicycle" oneway="0" width="2.00"/>
    <type id="highway.pedestrian" priority="1" numLanes="1" speed="2.78" allow="pedestrian" oneway="1" width="2.00"/>
    <type id="highway.primary" priority="12" numLanes="2" speed="27.78" disallow="tram rail_urban rail rail_electric rail_fast ship" oneway="0"/>
    <type id="highway.primary_link" priority="7" numLanes="1" speed="22.22" disallow="tram rail_urban rail rail_electric rail_fast ship" oneway="0"/>
    <type id="highway.raceway" priority="15" numLanes="2" speed="83.33" allow="vip" oneway="0"/>
    <type id="highway.residential" priority="3" numLanes="1" speed="13.89" disallow="tram rail_urban rail rail_electric rail_fast ship" oneway="0"/>
    <type id="highway.secondary" priority="11" numLanes="1" speed="27.78" disallow="tram rail_urban rail rail_electric rail_fast ship" oneway="0"/>
    <type id="highway.secondary_link" priority="6" numLanes="1" speed="22.22" disallow="tram rail_urban rail rail_electric rail_fast ship" oneway="0"/>
    <type id="highway.service" priority="1" numLanes="1" speed="5.56" allow="pedestrian delivery bicycle" oneway="0"/>
    <type id="highway.stairs" priority="1" numLanes="1" speed="1.39" allow="pedestrian" oneway="1" width="2.00"/>
    <type id="highway.step" priority="1" numLanes="1" speed="1.39" allow="pedestrian" oneway="1" width="2.00"/>
    <type id="highway.steps" priority="1" numLanes="1" speed="1.39" allow="pedestrian" oneway="1" width="2.00"/>
    <type id="highway.tertiary" priority="10" numLanes="1" speed="22.22" disallow="tram rail_urban rail rail_electric rail_fast ship" oneway="0"/>
    <type id="highway.tertiary_link" priority="5" numLanes="1" speed="22.22" disallow="tram rail_urban rail rail_electric rail_fast ship" oneway="0"/>
    <type id="highway.track" priority="1" numLanes="1" speed="5.56" allow="pedestrian motorcycle moped bicycle" oneway="0"/>
    <type id="highway.trunk" priority="13" numLanes="2" speed="27.78" disallow="pedestrian bicycle tram rail_urban rail rail_electric rail_fast ship" oneway="0"/>
    <type id="highway.trunk_link" priority="8" numLanes="1" speed="22.22" disallow="pedestrian bicycle tram rail_urban rail rail_electric rail_fast ship" oneway="0"/>
    <type id="highway.unclassified" priority="4" numLanes="1" speed="13.89" disallow="tram rail_urban rail rail_electric rail_fast ship" oneway="0"/>
    <type id="highway.unsurfaced" priority="1" numLanes="1" speed="8.33" disallow="tram rail_urban rail rail_electric rail_fast ship" oneway="0"/>
    <type id="railway.highspeed" priority="21" numLanes="1" speed="69.44" allow="rail_fast" oneway="1"/>
    <type id="railway.light_rail" priority="19" numLanes="1" speed="27.78" allow="rail_urban" oneway="1"/>
    <type id="railway.preserved" priority="16" numLanes="1" speed="27.78" allow="rail" oneway="1"/>
    <type id="railway.rail" priority="20" numLanes="1" speed="44.44" allow="rail" oneway="1"/>
    <type id="railway.subway" priority="18" numLanes="1" speed="27.78" allow="rail_urban" oneway="1"/>
    <type id="railway.tram" priority="17" numLanes="1" speed="13.89" allow="tram" oneway="1"/>

    <edge id=":148990743_0" function="internal">
        <lane id=":148990743_0_0" index="0" allow="private emergency authority army vip passenger hov taxi bus coach delivery truck trailer motorcycle evehicle custom1 custom2" speed="7.90" length="2.72" shape="497.27,626.26 496.62,626.74 496.19,627.10 495.86,627.54 495.51,628.26"/>
    </edge>
    <edge id=":148990743_1" function="internal">
        <lane id=":148990743_1_0" index="0" allow="private emergency authority army vip passenger hov taxi bus coach delivery truck trailer motorcycle evehicle custom1 custom2" speed="25.00" length="3.34" shape="499.20,628.82 496.43,631.07"/>
        <lane id=":148990743_1_1" index="1" allow="private emergency authority army vip passenger hov taxi bus coach delivery truck trailer motorcycle evehicle custom1 custom2" speed="25.00" length="3.34" shape="501.12,631.37 498.53,633.48"/>
        <lane id=":148990743_1_2" index="2" allow="private emergency authority army vip passenger hov taxi bus coach delivery truck trailer motorcycle evehicle custom1 custom2" speed="25.00" length="3.34" shape="503.05,633.93 500.63,635.89"/>
    </edge>
    <edge id=":148990758_0" function="internal">
        <lane id=":148990758_0_0" index="0" allow="private emergency authority army vip passenger hov taxi bus coach delivery truck trailer motorcycle evehicle custom1 custom2" speed="19.45" length="3.24" shape="191.26,882.06 190.57,882.73 190.08,883.17 189.56,883.58 188.78,884.14"/>
    </edge>
    <edge id=":148990758_1" function="internal">
        <lane id=":148990758_1_0" index="0" allow="private emergency authority army vip passenger hov taxi bus coach delivery truck trailer motorcycle evehicle custom1 custom2" speed="25.00" length="3.75" shape="193.45,884.57 190.64,886.74"/>
        <lane id=":148990758_1_1" index="1" allow="private emergency authority army vip passenger hov taxi bus coach delivery truck trailer motorcycle evehicle custom1 custom2" speed="25.00" length="3.75" shape="195.47,887.05 192.51,889.34"/>
        <lane id=":148990758_1_2" index="2" allow="private emergency authority army vip passenger hov taxi bus coach delivery truck trailer motorcycle evehicle custom1 custom2" speed="25.00" length="3.75" shape="197.50,889.53 194.37,891.94"/>
    </edge>
    <edge id=":148992604_0" function="internal">
        <lane id=":148992604_0_0" index="0" allow="private emergency authority army vip passenger hov taxi bus coach delivery truck trailer motorcycle evehicle custom1 custom2" speed="25.00" length="7.47" shape="660.66,523.31 662.81,522.12 664.67,521.91 666.46,521.63 668.41,520.23"/>
        <lane id=":148992604_0_1" index="1" allow="private emergency authority army vip passenger hov taxi bus coach delivery truck trailer motorcycle evehicle custom1 custom2" speed="25.00" length="7.47" shape="660.66,523.31 662.35,521.85 663.47,520.82 664.53,519.72 666.04,518.08"/>
        <lane id=":148992604_0_2" index="2" allow="private emergency authority army vip passenger hov taxi bus coach delivery truck trailer motorcycle evehicle custom1 custom2" speed="25.00" length="7.47" shape="658.58,520.88 660.18,519.50 661.24,518.52 662.25,517.48 663.67,515.92"/>
        <lane id=":148992604_0_3" index="3" allow="private emergency authority army vip passenger hov taxi bus coach delivery truck trailer motorcycle evehicle custom1 custom2" speed="25.00" length="7.47" shape="656.50,518.45 658.00,517.15 659.01,516.23 659.96,515.25 661.30,513.77"/>
    </edge>
    <edge id=":148992835_0" function="internal">
        <lane id=":148992835_0_0" index="0" allow="private emergency authority army vip passenger hov taxi bus coach delivery truck trailer motorcycle evehicle custom1 custom2" speed="19.45" length="4.24" shape="714.40,469.56 715.22,468.61 715.73,467.91 716.18,467.17 716.81,466.08"/>
    </edge>
    <edge id=":148992835_1" function="internal">
        <lane id=":148992835_1_0" index="0" allow="private emergency authority army vip passenger hov taxi bus coach delivery truck trailer motorcycle evehicle custom1 custom2" speed="25.00" length="2.99" shape="712.03,467.41 714.36,464.62"/>
        <lane id=":148992835_1_1" index="1" allow="private emergency authority army vip passenger hov taxi bus coach delivery truck trailer motorcycle evehicle custom1 custom2" speed="25.00" length="2.99" shape="709.66,465.25 711.59,462.96"/>
        <lane id=":148992835_1_2" index="2" allow="private emergency authority army vip passenger hov taxi bus coach delivery truck trailer motorcycle evehicle custom1 custom2" speed="25.00" length="2.99" shape="707.29,463.10 708.82,461.31"/>
    </edge>
    <edge id=":244170047_0" function="internal">
        <lane id=":244170047_0_0" index="0" allow="private emergency authority army vip passenger hov taxi bus coach delivery truck trailer motorcycle evehicle custom1 custom2" speed="16.66" length="43.27" shape="377.07,588.60 420.03,583.37"/>
    </edge>
    <edge id=":244170047_1" function="internal">
        <lane id=":244170047_1_0" index="0" disallow="tram rail_urban rail rail_electric rail_fast ship" speed="19.44" length="43.19" shape="376.62,584.20 387.61,585.06 398.36,585.24 409.09,584.69 420.03,583.37"/>
        <lane id=":244170047_1_1" index="1" disallow="tram rail_urban rail rail_electric rail_fast ship" speed="19.44" length="43.19" shape="376.47,580.97 387.41,581.83 398.04,582.04 408.65,581.52 419.54,580.21"/>
        <lane id=":244170047_1_2" index="2" disallow="tram rail_urban rail rail_electric rail_fast ship" speed="19.44" length="43.19" shape="376.32,577.73 387.21,578.61 397.72,578.84 408.21,578.34 419.05,577.05"/>
    </edge>
    <edge id=":244502003_0" function="internal">
        <lane id=":244502003_0_0" index="0" allow="private emergency authority army vip passenger hov taxi bus coach delivery truck trailer motorcycle evehicle custom1 custom2" speed="13.89" length="11.83" shape="243.97,585.66 250.50,595.53"/>
    </edge>
    <edge id=":244502003_1" function="internal">
        <lane id=":244502003_1_0" index="0" allow="private emergency authority army vip passenger hov taxi bus coach delivery truck trailer motorcycle evehicle custom1 custom2" speed="13.89" length="11.90" shape="247.61,584.16 247.79,587.44 248.17,590.11 249.00,592.64 250.50,595.53"/>
    </edge>
    <edge id=":244502016_0" function="internal">
        <lane id=":244502016_0_0" index="0" allow="private emergency authority army vip passenger hov taxi bus coach delivery truck trailer motorcycle evehicle custom1 custom2" speed="13.89" length="16.12" shape="307.39,667.80 306.07,664.16 305.36,660.10 304.94,655.95 304.51,652.02"/>
    </edge>
    <edge id=":244502016_1" function="internal">
        <lane id=":244502016_1_0" index="0" allow="private emergency authority army vip passenger hov taxi bus coach delivery truck trailer motorcycle evehicle custom1 custom2" speed="13.89" length="16.12" shape="307.39,667.80 301.10,652.96"/>
    </edge>
    <edge id=":244954806_0" function="internal">
        <lane id=":244954806_0_0" index="0" allow="private emergency authority army vip passenger hov taxi bus coach delivery truck trailer motorcycle evehicle custom1 custom2" speed="16.66" length="103.41" shape="1002.79,447.02 1017.66,453.41 1046.93,465.97 1078.08,478.76 1098.59,485.85"/>
    </edge>
    <edge id=":244954806_1" function="internal">
        <lane id=":244954806_1_0" index="0" disallow="tram rail_urban rail rail_electric rail_fast ship" speed="19.44" length="102.83" shape="1004.27,443.47 1022.43,452.82 1050.80,466.33 1079.48,479.01 1098.59,485.85"/>
        <lane id=":244954806_1_1" index="1" disallow="tram rail_urban rail rail_electric rail_fast ship" speed="19.44" length="102.83" shape="1005.56,440.52 1023.62,449.84 1051.76,463.29 1080.23,475.90 1099.23,482.72"/>
        <lane id=":244954806_1_2" index="2" disallow="tram rail_urban rail rail_electric rail_fast ship" speed="19.44" length="102.83" shape="1006.85,437.57 1024.81,446.86 1052.73,460.25 1080.97,472.80 1099.88,479.58"/>
    </edge>
    <edge id=":244954952_0" function="internal">
        <lane id=":244954952_0_0" index="0" disallow="tram rail_urban rail rail_electric rail_fast ship" speed="19.44" length="7.45" shape="754.80,365.26 752.51,365.69 750.86,365.66 749.25,365.72 747.05,366.42"/>
        <lane id=":244954952_0_1" index="1" disallow="tram rail_urban rail rail_electric rail_fast ship" speed="19.44" length="7.45" shape="754.80,365.26 752.74,366.14 751.51,367.13 750.32,368.21 748.35,369.34"/>
        <lane id=":244954952_0_2" index="2" disallow="tram rail_urban rail rail_electric rail_fast ship" speed="19.44" length="7.45" shape="755.72,368.33 753.77,369.17 752.62,370.13 751.51,371.18 749.65,372.27"/>
        <lane id=":244954952_0_3" index="3" disallow="tram rail_urban rail rail_electric rail_fast ship" speed="19.44" length="7.45" shape="756.63,371.39 754.80,372.20 753.73,373.14 752.70,374.15 750.95,375.19"/>
    </edge>
    <edge id=":244955020_0" function="internal">
        <lane id=":244955020_0_0" index="0" allow="private emergency authority army vip passenger hov taxi bus coach delivery truck trailer motorcycle evehicle custom1 custom2" speed="16.66" length="9.41" shape="889.38,357.86 886.77,356.83 884.94,356.18 883.25,355.30 881.08,353.60"/>
    </edge>
    <edge id=":244955020_1" function="internal">
        <lane id=":244955020_1_0" index="0" disallow="tram rail_urban rail rail_electric rail_fast ship" speed="19.44" length="6.68" shape="888.08,360.78 886.11,359.96 884.71,359.50 883.28,359.16 881.19,358.66"/>
        <lane id=":244955020_1_1" index="1" disallow="tram rail_urban rail rail_electric rail_fast ship" speed="19.44" length="6.68" shape="886.78,363.71 884.95,362.95 883.66,362.53 882.34,362.22 880.41,361.76"/>
        <lane id=":244955020_1_2" index="2" disallow="tram rail_urban rail rail_electric rail_fast ship" speed="19.44" length="6.68" shape="885.49,366.63 883.80,365.94 882.61,365.56 881.39,365.28 879.62,364.86"/>
    </edge>
    <edge id=":244957620_0" function="internal">
        <lane id=":244957620_0_0" index="0" disallow="tram rail_urban rail rail_electric rail_fast ship" speed="16.66" length="17.27" shape="646.98,427.62 645.43,430.96 643.82,434.38 641.37,437.93 637.30,441.63"/>
    </edge>
    <edge id=":244957620_1" function="internal">
        <lane id=":244957620_1_0" index="0" disallow="tram rail_urban rail rail_electric rail_fast ship" speed="19.44" length="17.43" shape="650.60,430.61 637.30,441.63"/>
        <lane id=":244957620_1_1" index="1" disallow="tram rail_urban rail rail_electric rail_fast ship" speed="19.44" length="17.43" shape="652.62,433.09 639.20,444.21"/>
        <lane id=":244957620_1_2" index="2" disallow="tram rail_urban rail rail_electric rail_fast ship" speed="19.44" length="17.43" shape="654.65,435.57 641.10,446.78"/>
    </edge>
    <edge id=":244957621_0" function="internal">
        <lane id=":244957621_0_0" index="0" disallow="tram rail_urban rail rail_electric rail_fast ship" speed="13.89" length="10.72" shape="687.62,351.44 686.62,354.34 686.06,356.55 685.59,358.79 684.85,361.78"/>
    </edge>
    <edge id=":244957621_1" function="internal">
        <lane id=":244957621_1_0" index="0" disallow="tram rail_urban rail rail_electric rail_fast ship" speed="13.89" length="11.46" shape="691.43,363.79 690.71,360.61 690.05,358.08 689.87,355.61 690.61,352.58"/>
    </edge>
    <edge id=":244957621_2" function="internal">
        <lane id=":244957621_2_0" index="0" disallow="tram rail_urban rail rail_electric rail_fast ship" speed="13.89" length="10.41" shape="687.93,362.63 688.66,359.68 689.10,357.55 689.62,355.44 690.61,352.58"/>
    </edge>
    <edge id=":244957621_3" function="internal">
        <lane id=":244957621_3_0" index="0" disallow="tram rail_urban rail rail_electric rail_fast ship" speed="3.65" length="1.44" shape="687.93,362.63 687.48,361.26"/>
    </edge>
    <edge id=":244957621_4" function="internal">
        <lane id=":244957621_4_0" index="0" disallow="tram rail_urban rail rail_electric rail_fast ship" speed="3.65" length="3.23" shape="687.48,361.26 686.82,360.66 685.94,360.83 684.85,361.78"/>
    </edge>
    <edge id=":440566048_0" function="internal">
        <lane id=":440566048_0_0" index="0" disallow="tram rail_urban rail rail_electric rail_fast ship" speed="9.64" length="8.59" shape="716.60,379.96 715.09,380.65 712.60,381.75 710.10,382.70 708.58,382.96"/>
    </edge>
    <edge id=":440566048_1" function="internal">
        <lane id=":440566048_1_0" index="0" disallow="tram rail_urban rail rail_electric rail_fast ship" speed="19.44" length="6.45" shape="717.90,382.88 716.05,383.74 714.83,384.40 713.64,385.14 711.91,386.22"/>
        <lane id=":440566048_1_1" index="1" disallow="tram rail_urban rail rail_electric rail_fast ship" speed="19.44" length="6.45" shape="719.20,385.80 717.46,386.61 716.31,387.24 715.20,387.94 713.57,388.95"/>
        <lane id=":440566048_1_2" index="2" disallow="tram rail_urban rail rail_electric rail_fast ship" speed="19.44" length="6.45" shape="720.50,388.73 718.87,389.49 717.80,390.08 716.76,390.74 715.24,391.69"/>
    </edge>
    <edge id=":4736309389_0" function="internal">
        <lane id=":4736309389_0_0" index="0" disallow="tram rail_urban rail rail_electric rail_fast ship" speed="19.44" length="8.03" shape="317.79,554.71 315.59,554.16 314.19,553.40 312.80,552.59 310.62,551.90"/>
        <lane id=":4736309389_0_1" index="1" disallow="tram rail_urban rail rail_electric rail_fast ship" speed="19.44" length="8.03" shape="317.37,557.88 315.11,557.33 313.67,556.56 312.24,555.74 310.00,555.04"/>
        <lane id=":4736309389_0_2" index="2" disallow="tram rail_urban rail rail_electric rail_fast ship" speed="19.44" length="8.03" shape="316.95,561.06 314.63,560.49 313.15,559.71 311.67,558.89 309.38,558.18"/>
        <lane id=":4736309389_0_3" index="3" disallow="tram rail_urban rail rail_electric rail_fast ship" speed="19.44" length="8.03" shape="316.95,561.06 314.52,560.98 312.84,561.28 311.16,561.54 308.75,561.32"/>
    </edge>
    <edge id=":6073286498_0" function="internal">
        <lane id=":6073286498_0_0" index="0" allow="private emergency authority army vip passenger hov taxi bus coach delivery truck trailer motorcycle evehicle custom1 custom2" speed="25.00" length="8.03" shape="524.88,609.19 522.77,610.32 520.96,610.39 519.12,610.42 516.93,611.45"/>
        <lane id=":6073286498_0_1" index="1" allow="private emergency authority army vip passenger hov taxi bus coach delivery truck trailer motorcycle evehicle custom1 custom2" speed="25.00" length="8.03" shape="524.88,609.19 518.85,614.00"/>
        <lane id=":6073286498_0_2" index="2" allow="private emergency authority army vip passenger hov taxi bus coach delivery truck trailer motorcycle evehicle custom1 custom2" speed="25.00" length="8.03" shape="526.94,611.64 520.78,616.56"/>
        <lane id=":6073286498_0_3" index="3" allow="private emergency authority army vip passenger hov taxi bus coach delivery truck trailer motorcycle evehicle custom1 custom2" speed="25.00" length="8.03" shape="529.01,614.08 522.70,619.12"/>
    </edge>
    <edge id=":6114780618_0" function="internal">
        <lane id=":6114780618_0_0" index="0" disallow="tram rail_urban rail rail_electric rail_fast ship" speed="19.44" length="8.21" shape="922.55,374.31 920.46,373.11 919.22,371.96 917.98,370.81 915.89,369.61"/>
        <lane id=":6114780618_0_1" index="1" disallow="tram rail_urban rail rail_electric rail_fast ship" speed="19.44" length="8.21" shape="922.55,374.31 920.26,373.57 918.57,373.43 916.88,373.28 914.59,372.54"/>
        <lane id=":6114780618_0_2" index="2" disallow="tram rail_urban rail rail_electric rail_fast ship" speed="19.44" length="8.21" shape="921.26,377.24 918.96,376.50 917.28,376.35 915.59,376.20 913.29,375.46"/>
        <lane id=":6114780618_0_3" index="3" disallow="tram rail_urban rail rail_electric rail_fast ship" speed="19.44" length="8.21" shape="919.96,380.17 917.67,379.42 915.98,379.28 914.29,379.13 912.00,378.39"/>
    </edge>
    <edge id=":6141703203_0" function="internal">
        <lane id=":6141703203_0_0" index="0" allow="private emergency authority army vip passenger hov taxi bus coach delivery truck trailer motorcycle evehicle custom1 custom2" speed="13.89" length="8.21" shape="291.25,629.13 290.56,626.82 290.46,625.13 290.36,623.43 289.68,621.12"/>
        <lane id=":6141703203_0_1" index="1" allow="private emergency authority army vip passenger hov taxi bus coach delivery truck trailer motorcycle evehicle custom1 custom2" speed="13.89" length="8.21" shape="291.25,629.13 290.10,627.01 288.98,625.73 287.86,624.46 286.72,622.34"/>
    </edge>
    <edge id=":6141719004_0" function="internal">
        <lane id=":6141719004_0_0" index="0" disallow="tram rail_urban rail rail_electric rail_fast ship" speed="19.44" length="8.17" shape="606.99,491.36 608.99,490.12 610.56,489.60 612.15,489.11 614.19,487.93"/>
        <lane id=":6141719004_0_1" index="1" disallow="tram rail_urban rail rail_electric rail_fast ship" speed="19.44" length="8.17" shape="605.02,488.84 607.04,487.58 608.63,487.05 610.24,486.54 612.30,485.34"/>
        <lane id=":6141719004_0_2" index="2" disallow="tram rail_urban rail rail_electric rail_fast ship" speed="19.44" length="8.17" shape="603.05,486.31 605.10,485.03 606.70,484.49 608.32,483.97 610.42,482.76"/>
        <lane id=":6141719004_0_3" index="3" disallow="tram rail_urban rail rail_electric rail_fast ship" speed="19.44" length="8.17" shape="603.05,486.31 604.81,484.63 605.76,483.20 606.73,481.80 608.53,480.17"/>
    </edge>
    <edge id=":6141745502_0" function="internal">
        <lane id=":6141745502_0_0" index="0" disallow="tram rail_urban rail rail_electric rail_fast ship" speed="3.65" length="4.67" shape="739.82,210.34 739.38,208.96 738.73,208.35 737.85,208.51 736.74,209.44"/>
    </edge>
    <edge id=":637343207#1-AddedOnRampNode_0" function="internal">
        <lane id=":637343207#1-AddedOnRampNode_0_0" index="0" allow="private emergency authority army vip passenger hov taxi bus coach delivery truck trailer motorcycle evehicle custom1 custom2" speed="25.00" length="8.00" shape="113.93,941.71 107.43,946.37"/>
        <lane id=":637343207#1-AddedOnRampNode_0_1" index="1" allow="private emergency authority army vip passenger hov taxi bus coach delivery truck trailer motorcycle evehicle custom1 custom2" speed="25.00" length="8.00" shape="115.79,944.31 109.29,948.97"/>
        <lane id=":637343207#1-AddedOnRampNode_0_2" index="2" allow="private emergency authority army vip passenger hov taxi bus coach delivery truck trailer motorcycle evehicle custom1 custom2" speed="25.00" length="8.00" shape="117.66,946.91 111.15,951.57"/>
    </edge>
    <edge id=":6382369161_0" function="internal">
        <lane id=":6382369161_0_0" index="0" disallow="tram rail_urban rail rail_electric rail_fast ship" speed="13.89" length="1.97" shape="684.80,361.97 684.63,362.53 684.46,362.89 684.25,363.23 683.92,363.72"/>
    </edge>
    <edge id=":6382369161_1" function="internal">
        <lane id=":6382369161_1_0" index="0" disallow="tram rail_urban rail rail_electric rail_fast ship" speed="13.89" length="2.65" shape="687.71,365.44 687.66,364.66 687.64,364.12 687.70,363.58 687.88,362.82"/>
    </edge>
    <edge id=":7106060851_0" function="internal">
        <lane id=":7106060851_0_0" index="0" disallow="tram rail_urban rail rail_electric rail_fast ship" speed="13.89" length="14.73" shape="683.81,363.88 676.12,376.44"/>
    </edge>
    <edge id=":7106060851_1" function="internal">
        <lane id=":7106060851_1_0" index="0" disallow="tram rail_urban rail rail_electric rail_fast ship" speed="13.89" length="14.81" shape="683.81,363.88 682.07,367.14 680.89,370.62 680.14,374.25 679.68,377.96"/>
    </edge>
    <edge id=":cluster_1483470200_244170193_244502023_7013402615_0" function="internal">
        <lane id=":cluster_1483470200_244170193_244502023_7013402615_0_0" index="0" disallow="tram rail_urban rail rail_electric rail_fast ship" speed="19.44" length="28.28" shape="278.23,545.47 250.57,540.96"/>
        <lane id=":cluster_1483470200_244170193_244502023_7013402615_0_1" index="1" disallow="tram rail_urban rail rail_electric rail_fast ship" speed="19.44" length="28.28" shape="277.61,548.61 249.71,544.04"/>
        <lane id=":cluster_1483470200_244170193_244502023_7013402615_0_2" index="2" disallow="tram rail_urban rail rail_electric rail_fast ship" speed="19.44" length="28.28" shape="277.00,551.75 248.84,547.12"/>
    </edge>
    <edge id=":cluster_1483470200_244170193_244502023_7013402615_3" function="internal">
        <lane id=":cluster_1483470200_244170193_244502023_7013402615_3_0" index="0" allow="private emergency authority army vip passenger hov taxi bus coach delivery truck trailer motorcycle evehicle custom1 custom2" speed="12.20" length="35.24" shape="276.39,554.89 265.39,553.90 257.10,555.83 251.51,560.68 248.63,568.44"/>
    </edge>
    <edge id=":cluster_1483470200_244170193_244502023_7013402615_4" function="internal">
        <lane id=":cluster_1483470200_244170193_244502023_7013402615_4_0" index="0" disallow="tram rail_urban rail rail_electric rail_fast ship" speed="4.69" length="9.22" shape="276.39,554.89 273.76,555.99 272.69,557.39 273.16,559.09 275.18,561.09"/>
    </edge>
    <edge id=":cluster_1483470200_244170193_244502023_7013402615_5" function="internal">
        <lane id=":cluster_1483470200_244170193_244502023_7013402615_5_0" index="0" allow="private emergency authority army vip passenger hov taxi bus coach delivery truck trailer motorcycle evehicle custom1 custom2" speed="16.66" length="35.61" shape="269.76,572.49 264.54,561.02 259.46,552.46 254.51,546.80 249.71,544.04"/>
        <lane id=":cluster_1483470200_244170193_244502023_7013402615_5_1" index="1" allow="private emergency authority army vip passenger hov taxi bus coach delivery truck trailer motorcycle evehicle custom1 custom2" speed="16.66" length="32.75" shape="266.80,573.70 261.93,562.90 257.32,554.87 252.95,549.61 248.84,547.12"/>
    </edge>
    <edge id=":cluster_1483470200_244170193_244502023_7013402615_7" function="internal">
        <lane id=":cluster_1483470200_244170193_244502023_7013402615_7_0" index="0" allow="private emergency authority army vip passenger hov taxi bus coach delivery truck trailer motorcycle evehicle custom1 custom2" speed="8.04" length="25.48" shape="266.80,573.70 262.52,567.32 256.86,563.54 251.63,563.53 248.63,568.44"/>
    </edge>
    <edge id=":cluster_1483470200_244170193_244502023_7013402615_8" function="internal">
        <lane id=":cluster_1483470200_244170193_244502023_7013402615_8_0" index="0" disallow="tram rail_urban rail rail_electric rail_fast ship" speed="19.44" length="29.52" shape="244.69,561.86 273.96,567.37"/>
        <lane id=":cluster_1483470200_244170193_244502023_7013402615_8_1" index="1" disallow="tram rail_urban rail rail_electric rail_fast ship" speed="19.44" length="29.52" shape="245.56,558.77 274.57,564.23"/>
        <lane id=":cluster_1483470200_244170193_244502023_7013402615_8_2" index="2" disallow="tram rail_urban rail rail_electric rail_fast ship" speed="19.44" length="29.52" shape="246.43,555.68 275.18,561.09"/>
    </edge>
    <edge id=":cluster_1483470200_244170193_244502023_7013402615_11" function="internal">
        <lane id=":cluster_1483470200_244170193_244502023_7013402615_11_0" index="0" disallow="tram rail_urban rail rail_electric rail_fast ship" speed="5.48" length="9.72" shape="246.43,555.68 250.24,554.44 251.92,552.60 251.45,550.16 250.97,549.60"/>
    </edge>
    <edge id=":cluster_1483470200_244170193_244502023_7013402615_12" function="internal">
        <lane id=":cluster_1483470200_244170193_244502023_7013402615_12_0" index="0" disallow="tram rail_urban rail rail_electric rail_fast ship" speed="5.48" length="3.27" shape="250.97,549.60 248.84,547.12"/>
    </edge>
    <edge id=":cluster_244500670_244955100_6382369165_6382369166_0" function="internal">