<?xml version="1.0" encoding="UTF-8"?>

<!-- generated on 2023-07-19 10:48:03 by Eclipse SUMO netconvert Version 1.17.0
<configuration xmlns:xsi="http://www.w3.org/2001/XMLSchema-instance" xsi:noNamespaceSchemaLocation="http://sumo.dlr.de/xsd/netconvertConfiguration.xsd">

    <input>
        <sumo-net-file value="osm.net.xml.gz"/>
    </input>

    <output>
        <output-file value="osm.net.xml"/>
        <output.street-names value="true"/>
    </output>

    <processing>
        <geometry.min-radius.fix.railways value="false"/>
        <geometry.max-grade.fix value="false"/>
        <offset.disable-normalization value="true"/>
        <lefthand value="1"/>
    </processing>

    <junctions>
        <no-turnarounds value="true"/>
        <junctions.corner-detail value="5"/>
        <junctions.limit-turn-speed value="5.50"/>
        <rectangular-lane-cut value="0"/>
    </junctions>

    <pedestrian>
        <walkingareas value="0"/>
    </pedestrian>

</configuration>
-->

<net version="1.16" junctionCornerDetail="5" lefthand="true" limitTurnSpeed="5.50" xmlns:xsi="http://www.w3.org/2001/XMLSchema-instance" xsi:noNamespaceSchemaLocation="http://sumo.dlr.de/xsd/net_file.xsd">

    <location netOffset="-382951.84,-146673.12" convBoundary="0.00,0.00,368.67,330.89" origBoundary="103.947896,1.326771,103.951209,1.329764" projParameter="+proj=utm +zone=48 +ellps=WGS84 +datum=WGS84 +units=m +no_defs"/>

    <type id="highway.bridleway" priority="1" numLanes="1" speed="2.78" allow="pedestrian" oneway="1" width="2.00"/>
    <type id="highway.bus_guideway" priority="1" numLanes="1" speed="27.78" allow="bus" oneway="1"/>
    <type id="highway.cycleway" priority="1" numLanes="1" speed="5.56" allow="bicycle" oneway="0" width="1.00"/>
    <type id="highway.footway" priority="1" numLanes="1" speed="2.78" allow="pedestrian" oneway="1" width="2.00"/>
    <type id="highway.ford" priority="1" numLanes="1" speed="2.78" allow="army" oneway="0"/>
    <type id="highway.living_street" priority="2" numLanes="1" speed="2.78" disallow="tram rail_urban rail rail_electric rail_fast ship" oneway="0"/>
    <type id="highway.motorway" priority="14" numLanes="2" speed="39.44" allow="private emergency authority army vip passenger hov taxi bus coach delivery truck trailer motorcycle evehicle custom1 custom2" oneway="1"/>
    <type id="highway.motorway_link" priority="9" numLanes="1" speed="22.22" allow="private emergency authority army vip passenger hov taxi bus coach delivery truck trailer motorcycle evehicle custom1 custom2" oneway="1"/>
    <type id="highway.path" priority="1" numLanes="1" speed="5.56" allow="pedestrian bicycle" oneway="0" width="2.00"/>
    <type id="highway.pedestrian" priority="1" numLanes="1" speed="2.78" allow="pedestrian" oneway="1" width="2.00"/>
    <type id="highway.primary" priority="12" numLanes="2" speed="27.78" disallow="tram rail_urban rail rail_electric rail_fast ship" oneway="0"/>
    <type id="highway.primary_link" priority="7" numLanes="1" speed="22.22" disallow="tram rail_urban rail rail_electric rail_fast ship" oneway="0"/>
    <type id="highway.raceway" priority="15" numLanes="2" speed="83.33" allow="vip" oneway="0"/>
    <type id="highway.residential" priority="3" numLanes="1" speed="13.89" disallow="tram rail_urban rail rail_electric rail_fast ship" oneway="0"/>
    <type id="highway.secondary" priority="11" numLanes="1" speed="27.78" disallow="tram rail_urban rail rail_electric rail_fast ship" oneway="0"/>
    <type id="highway.secondary_link" priority="6" numLanes="1" speed="22.22" disallow="tram rail_urban rail rail_electric rail_fast ship" oneway="0"/>
    <type id="highway.service" priority="1" numLanes="1" speed="5.56" allow="pedestrian delivery bicycle" oneway="0"/>
    <type id="highway.stairs" priority="1" numLanes="1" speed="1.39" allow="pedestrian" oneway="1" width="2.00"/>
    <type id="highway.step" priority="1" numLanes="1" speed="1.39" allow="pedestrian" oneway="1" width="2.00"/>
    <type id="highway.steps" priority="1" numLanes="1" speed="1.39" allow="pedestrian" oneway="1" width="2.00"/>
    <type id="highway.tertiary" priority="10" numLanes="1" speed="22.22" disallow="tram rail_urban rail rail_electric rail_fast ship" oneway="0"/>
    <type id="highway.tertiary_link" priority="5" numLanes="1" speed="22.22" disallow="tram rail_urban rail rail_electric rail_fast ship" oneway="0"/>
    <type id="highway.track" priority="1" numLanes="1" speed="5.56" allow="pedestrian motorcycle moped bicycle" oneway="0"/>
    <type id="highway.trunk" priority="13" numLanes="2" speed="27.78" disallow="pedestrian bicycle tram rail_urban rail rail_electric rail_fast ship" oneway="0"/>
    <type id="highway.trunk_link" priority="8" numLanes="1" speed="22.22" disallow="pedestrian bicycle tram rail_urban rail rail_electric rail_fast ship" oneway="0"/>
    <type id="highway.unclassified" priority="4" numLanes="1" speed="13.89" disallow="tram rail_urban rail rail_electric rail_fast ship" oneway="0"/>
    <type id="highway.unsurfaced" priority="1" numLanes="1" speed="8.33" disallow="tram rail_urban rail rail_electric rail_fast ship" oneway="0"/>
    <type id="railway.highspeed" priority="21" numLanes="1" speed="69.44" allow="rail_fast" oneway="1"/>
    <type id="railway.light_rail" priority="19" numLanes="1" speed="27.78" allow="rail_urban" oneway="1"/>
    <type id="railway.preserved" priority="16" numLanes="1" speed="27.78" allow="rail" oneway="1"/>
    <type id="railway.rail" priority="20" numLanes="1" speed="44.44" allow="rail" oneway="1"/>
    <type id="railway.subway" priority="18" numLanes="1" speed="27.78" allow="rail_urban" oneway="1"/>
    <type id="railway.tram" priority="17" numLanes="1" speed="13.89" allow="tram" oneway="1"/>

    <edge id=":1268256236_0" function="internal">
        <lane id=":1268256236_0_0" index="0" disallow="tram rail_urban rail rail_electric rail_fast ship" speed="13.89" length="8.21" shape="161.45,241.40 159.83,243.19 158.44,244.15 157.04,245.10 155.39,246.86"/>
    </edge>
    <edge id=":2000826122_0" function="internal">
        <lane id=":2000826122_0_0" index="0" disallow="tram rail_urban rail rail_electric rail_fast ship" speed="16.67" length="6.53" shape="183.44,201.74 187.04,196.29"/>
        <lane id=":2000826122_0_1" index="1" disallow="tram rail_urban rail rail_electric rail_fast ship" speed="16.67" length="6.53" shape="184.63,198.78 188.24,193.33"/>
        <lane id=":2000826122_0_2" index="2" disallow="tram rail_urban rail rail_electric rail_fast ship" speed="16.67" length="6.53" shape="185.83,195.81 189.45,190.37"/>
        <lane id=":2000826122_0_3" index="3" disallow="tram rail_urban rail rail_electric rail_fast ship" speed="16.67" length="6.53" shape="187.03,192.84 190.66,187.41"/>
    </edge>
    <edge id=":2000826122_4" function="internal">
        <lane id=":2000826122_4_0" index="0" allow="bus bicycle" speed="3.65" length="4.67" shape="187.03,192.84 188.44,192.55 189.11,191.96 189.04,191.07 188.23,189.87"/>
    </edge>
    <edge id=":241978004_0" function="internal">
        <lane id=":241978004_0_0" index="0" allow="bus bicycle" speed="3.65" length="4.67" shape="74.24,108.06 72.83,108.35 72.16,108.94 72.23,109.83 73.04,111.02"/>
    </edge>
    <edge id=":241978057_0" function="internal">
        <lane id=":241978057_0_0" index="0" disallow="tram rail_urban rail rail_electric rail_fast ship" speed="13.89" length="20.18" shape="222.66,155.31 219.33,160.20 217.03,163.53 214.59,166.76 210.85,171.34"/>
        <lane id=":241978057_0_1" index="1" disallow="tram rail_urban rail rail_electric rail_fast ship" speed="13.89" length="20.18" shape="225.29,157.12 221.92,162.08 219.59,165.45 217.11,168.72 213.33,173.36"/>
        <lane id=":241978057_0_2" index="2" disallow="tram rail_urban rail rail_electric rail_fast ship" speed="13.89" length="20.18" shape="227.93,158.94 224.51,163.96 222.15,167.37 219.64,170.69 215.80,175.39"/>
    </edge>
    <edge id=":241978057_3" function="internal">
        <lane id=":241978057_3_0" index="0" disallow="tram rail_urban rail rail_electric rail_fast ship" speed="16.67" length="18.89" shape="225.99,169.25 221.41,166.24 219.16,162.79 216.91,159.36 212.30,156.43"/>
        <lane id=":241978057_3_1" index="1" disallow="tram rail_urban rail rail_electric rail_fast ship" speed="16.67" length="18.89" shape="224.79,172.22 220.18,169.20 217.91,165.73 215.62,162.30 210.98,159.35"/>
        <lane id=":241978057_3_2" index="2" disallow="tram rail_urban rail rail_electric rail_fast ship" speed="16.67" length="18.89" shape="224.79,172.22 220.07,169.69 217.24,167.19 214.40,164.72 209.66,162.27"/>
    </edge>
    <edge id=":241978057_6" function="internal">
        <lane id=":241978057_6_0" index="0" allow="bus bicycle" speed="5.67" length="8.24" shape="208.37,165.20 210.68,166.42 211.86,167.84 211.92,169.48 210.85,171.34"/>
    </edge>
    <edge id=":241978057_7" function="internal">
        <lane id=":241978057_7_0" index="0" allow="bus bicycle" speed="3.65" length="1.44" shape="208.37,165.20 209.79,164.95"/>
    </edge>
    <edge id=":241978057_8" function="internal">
        <lane id=":241978057_8_0" index="0" allow="bus bicycle" speed="3.65" length="3.23" shape="209.79,164.95 210.48,164.38 210.43,163.48 209.66,162.27"/>
    </edge>
    <edge id=":4592805651_0" function="internal">
        <lane id=":4592805651_0_0" index="0" disallow="tram rail_urban rail rail_electric rail_fast ship" speed="15.28" length="24.14" shape="213.02,146.67 206.95,148.93 202.02,150.39 196.87,150.42 190.15,148.40"/>
        <lane id=":4592805651_0_1" index="1" disallow="tram rail_urban rail rail_electric rail_fast ship" speed="15.28" length="24.14" shape="212.57,150.21 206.43,152.39 201.32,153.69 195.92,153.53 188.94,151.36"/>
    </edge>
    <edge id=":4592805651_2" function="internal">
        <lane id=":4592805651_2_0" index="0" allow="bus bicycle" speed="7.53" length="20.72" shape="212.57,150.21 207.32,153.30 204.33,157.58 204.39,161.92 208.28,165.17"/>
    </edge>
    <edge id=":4592805651_3" function="internal">
        <lane id=":4592805651_3_0" index="0" disallow="tram rail_urban rail rail_electric rail_fast ship" speed="16.67" length="23.01" shape="211.73,156.21 190.15,148.40"/>
        <lane id=":4592805651_3_1" index="1" disallow="tram rail_urban rail rail_electric rail_fast ship" speed="16.67" length="23.01" shape="210.58,159.20 188.94,151.36"/>
        <lane id=":4592805651_3_2" index="2" disallow="tram rail_urban rail rail_electric rail_fast ship" speed="16.67" length="23.01" shape="209.43,162.18 187.73,154.33"/>
    </edge>
    <edge id=":4592805651_6" function="internal">
        <lane id=":4592805651_6_0" index="0" allow="bus bicycle" speed="3.65" length="1.44" shape="209.43,162.18 208.02,162.50"/>
    </edge>
    <edge id=":4592805651_9" function="internal">
        <lane id=":4592805651_9_0" index="0" allow="bus bicycle" speed="3.65" length="3.23" shape="208.02,162.50 207.36,163.10 207.44,163.99 208.28,165.17"/>
    </edge>
    <edge id=":4592805651_7" function="internal">
        <lane id=":4592805651_7_0" index="0" allow="bus bicycle" speed="16.67" length="23.14" shape="186.52,157.29 208.28,165.17"/>
    </edge>
    <edge id=":4592805651_8" function="internal">
        <lane id=":4592805651_8_0" index="0" allow="bus bicycle" speed="3.65" length="1.44" shape="186.52,157.29 187.93,157.00"/>
    </edge>
    <edge id=":4592805651_10" function="internal">
        <lane id=":4592805651_10_0" index="0" allow="bus bicycle" speed="3.65" length="3.23" shape="187.93,157.00 188.60,156.41 188.53,155.52 187.73,154.33"/>
    </edge>
    <edge id=":4592805655_0" function="internal">
        <lane id=":4592805655_0_0" index="0" disallow="tram rail_urban rail rail_electric rail_fast ship" speed="13.89" length="11.14" shape="233.65,136.42 231.52,138.80 229.57,139.89 227.30,140.61 224.22,141.88"/>
        <lane id=":4592805655_0_1" index="1" disallow="tram rail_urban rail rail_electric rail_fast ship" speed="13.89" length="12.97" shape="236.25,138.27 233.80,141.08 231.57,142.44 228.97,143.36 225.40,144.87"/>
    </edge>
    <edge id=":4592805655_2" function="internal">
        <lane id=":4592805655_2_0" index="0" disallow="tram rail_urban rail rail_electric rail_fast ship" speed="13.89" length="12.73" shape="236.25,138.27 233.88,141.22 231.99,143.03 230.12,144.85 227.80,147.83"/>
        <lane id=":4592805655_2_1" index="1" disallow="tram rail_urban rail rail_electric rail_fast ship" speed="13.89" length="12.73" shape="238.86,140.13 236.49,143.06 234.61,144.86 232.75,146.68 230.43,149.64"/>
        <lane id=":4592805655_2_2" index="2" disallow="tram rail_urban rail rail_electric rail_fast ship" speed="13.89" length="12.73" shape="241.46,141.99 239.11,144.91 237.23,146.70 235.38,148.50 233.07,151.46"/>
    </edge>
    <edge id=":4592805661_0" function="internal">
        <lane id=":4592805661_0_0" index="0" allow="bus bicycle" speed="16.67" length="15.44" shape="226.51,202.17 223.04,200.76 219.21,200.09 215.27,199.65 211.49,198.95"/>
    </edge>
    <edge id=":4592805661_1" function="internal">
        <lane id=":4592805661_1_0" index="0" allow="bus bicycle" speed="3.65" length="1.44" shape="226.51,202.17 225.07,202.23"/>
    </edge>
    <edge id=":4592805661_8" function="internal">
        <lane id=":4592805661_8_0" index="0" allow="bus bicycle" speed="3.65" length="3.23" shape="225.07,202.23 224.32,202.71 224.24,203.60 224.86,204.91"/>
    </edge>
    <edge id=":4592805661_2" function="internal">
        <lane id=":4592805661_2_0" index="0" disallow="tram rail_urban rail rail_electric rail_fast ship" speed="11.47" length="15.07" shape="206.95,211.79 211.73,210.20 215.75,209.44 219.03,209.50 221.54,210.39"/>
    </edge>
    <edge id=":4592805661_3" function="internal">
        <lane id=":4592805661_3_0" index="0" allow="bus bicycle" speed="7.00" length="18.19" shape="206.95,211.79 211.66,208.91 214.60,205.10 214.85,201.42 211.49,198.95"/>
    </edge>
    <edge id=":4592805661_4" function="internal">
        <lane id=":4592805661_4_0" index="0" disallow="tram rail_urban rail rail_electric rail_fast ship" speed="16.67" length="14.17" shape="208.44,208.07 212.39,208.69 215.26,208.60 218.00,208.82 221.54,210.39"/>
        <lane id=":4592805661_4_1" index="1" disallow="tram rail_urban rail rail_electric rail_fast ship" speed="16.67" length="14.17" shape="209.46,205.03 213.61,205.71 216.61,205.67 219.48,205.97 223.20,207.65"/>
        <lane id=":4592805661_4_2" index="2" disallow="tram rail_urban rail rail_electric rail_fast ship" speed="16.67" length="14.17" shape="210.47,201.99 214.82,202.73 217.96,202.75 220.96,203.12 224.86,204.91"/>
    </edge>
    <edge id=":4592805661_7" function="internal">
        <lane id=":4592805661_7_0" index="0" allow="bus bicycle" speed="3.65" length="1.44" shape="210.47,201.99 211.87,201.61"/>
    </edge>
    <edge id=":4592805661_9" function="internal">
        <lane id=":4592805661_9_0" index="0" allow="bus bicycle" speed="3.65" length="3.24" shape="211.87,201.61 212.50,200.98 212.38,200.09 211.49,198.95"/>
    </edge>
    <edge id=":4592805665_0" function="internal">
        <lane id=":4592805665_0_0" index="0" allow="bus bicycle" speed="16.67" length="18.27" shape="174.45,184.31 157.98,176.41"/>
    </edge>
    <edge id=":4592805665_1" function="internal">
        <lane id=":4592805665_1_0" index="0" allow="bus bicycle" speed="8.41" length="2.13" shape="174.45,184.31 172.33,184.16"/>
    </edge>
    <edge id=":4592805665_2" function="internal">
        <lane id=":4592805665_2_0" index="0" allow="bus bicycle" speed="3.65" length="1.44" shape="174.45,184.31 173.04,184.61"/>
    </edge>
    <edge id=":4592805665_9" function="internal">
        <lane id=":4592805665_9_0" index="0" allow="bus bicycle" speed="8.41" length="22.80" shape="172.33,184.16 168.40,183.89 164.90,187.54 163.95,193.77 165.56,201.09"/>
    </edge>
    <edge id=":4592805665_10" function="internal">
        <lane id=":4592805665_10_0" index="0" allow="bus bicycle" speed="3.65" length="3.23" shape="173.04,184.61 172.37,185.20 172.44,186.09 173.25,187.28"/>
    </edge>
    <edge id=":4592805665_3" function="internal">
        <lane id=":4592805665_3_0" index="0" disallow="tram rail_urban rail rail_electric rail_fast ship" speed="12.75" length="17.66" shape="153.92,188.55 157.56,190.31 160.71,192.98 163.37,196.58 165.56,201.09"/>
    </edge>
    <edge id=":4592805665_4" function="internal">
        <lane id=":4592805665_4_0" index="0" disallow="tram rail_urban rail rail_electric rail_fast ship" speed="16.67" length="17.81" shape="153.92,188.55 158.74,190.45 161.86,192.18 164.95,194.00 169.66,196.18"/>
        <lane id=":4592805665_4_1" index="1" disallow="tram rail_urban rail rail_electric rail_fast ship" speed="16.67" length="17.81" shape="154.94,185.52 159.81,187.44 162.97,189.18 166.09,191.01 170.86,193.22"/>
        <lane id=":4592805665_4_2" index="2" disallow="tram rail_urban rail rail_electric rail_fast ship" speed="16.67" length="17.81" shape="155.95,182.48 160.88,184.42 164.08,186.17 167.24,188.02 172.06,190.25"/>
        <lane id=":4592805665_4_3" index="3" disallow="tram rail_urban rail rail_electric rail_fast ship" speed="16.67" length="17.81" shape="156.97,179.45 161.95,181.40 165.18,183.17 168.38,185.03 173.25,187.28"/>
    </edge>
    <edge id=":4592805665_8" function="internal">
        <lane id=":4592805665_8_0" index="0" allow="bus bicycle" speed="3.65" length="1.32" shape="156.97,179.45 158.24,179.10"/>
    </edge>
    <edge id=":4592805665_11" function="internal">
        <lane id=":4592805665_11_0" index="0" allow="bus bicycle" speed="3.65" length="3.36" shape="158.24,179.10 158.36,179.07 158.99,178.44 158.86,177.55 157.98,176.41"/>
    </edge>
    <edge id=":4674011593_0" function="internal">
        <lane id=":4674011593_0_0" index="0" disallow="tram rail_urban rail rail_electric rail_fast ship" speed="16.67" length="15.71" shape="329.92,243.64 320.88,230.93"/>
        <lane id=":4674011593_0_1" index="1" disallow="tram rail_urban rail rail_electric rail_fast ship" speed="16.67" length="15.71" shape="327.37,245.59 318.27,232.78"/>
        <lane id=":4674011593_0_2" index="2" disallow="tram rail_urban rail rail_electric rail_fast ship" speed="16.67" length="15.71" shape="324.83,247.53 315.65,234.64"/>
    </edge>
    <edge id=":4674011593_3" function="internal">
        <lane id=":4674011593_3_0" index="0" disallow="tram rail_urban rail rail_electric rail_fast ship" speed="15.28" length="3.63" shape="324.83,247.53 322.18,245.04"/>
    </edge>
    <edge id=":4674011593_4" function="internal">
        <lane id=":4674011593_4_0" index="0" allow="bus bicycle" speed="3.65" length="1.44" shape="324.83,247.53 323.47,247.06"/>
    </edge>
    <edge id=":4674011593_8" function="internal">
        <lane id=":4674011593_8_0" index="0" disallow="tram rail_urban rail rail_electric rail_fast ship" speed="15.28" length="13.54" shape="322.18,245.04 320.93,243.88 317.02,242.17 313.26,241.25 309.81,239.94"/>
    </edge>
    <edge id=":4674011593_9" function="internal">
        <lane id=":4674011593_9_0" index="0" allow="bus bicycle" speed="3.65" length="3.23" shape="323.47,247.06 322.59,247.23 322.20,248.03 322.29,249.47"/>
    </edge>
    <edge id=":4674011593_5" function="internal">
        <lane id=":4674011593_5_0" index="0" allow="bus bicycle" speed="5.92" length="14.08" shape="313.04,236.50 315.95,240.53 316.38,242.45 314.33,242.25 309.81,239.94"/>
    </edge>
    <edge id=":4674011593_6" function="internal">
        <lane id=":4674011593_6_0" index="0" allow="bus bicycle" speed="16.67" length="15.94" shape="313.04,236.50 322.29,249.47"/>
    </edge>
    <edge id=":4674011593_7" function="internal">
        <lane id=":4674011593_7_0" index="0" allow="bus bicycle" speed="3.65" length="1.45" shape="313.04,236.50 314.39,237.01"/>
    </edge>
    <edge id=":4674011593_10" function="internal">
        <lane id=":4674011593_10_0" index="0" allow="bus bicycle" speed="3.65" length="3.24" shape="314.39,237.01 315.27,236.88 315.69,236.09 315.65,234.64"/>
    </edge>
    <edge id=":4675206312_0" function="internal">
        <lane id=":4675206312_0_0" index="0" disallow="tram rail_urban rail rail_electric rail_fast ship" speed="11.58" length="11.55" shape="245.50,82.86 248.09,84.85 249.31,86.82 249.93,89.25 250.70,92.62"/>
        <lane id=":4675206312_0_1" index="1" disallow="tram rail_urban rail rail_electric rail_fast ship" speed="12.39" length="13.28" shape="247.17,80.13 250.23,82.39 251.79,84.57 252.65,87.28 253.60,91.12"/>
    </edge>
    <edge id=":4675206312_2" function="internal">
        <lane id=":4675206312_2_0" index="0" disallow="tram rail_urban rail rail_electric rail_fast ship" speed="13.89" length="12.79" shape="247.17,80.13 250.21,82.33 252.02,84.20 253.81,86.11 256.79,88.41"/>
        <lane id=":4675206312_2_1" index="1" disallow="tram rail_urban rail rail_electric rail_fast ship" speed="13.89" length="12.79" shape="248.84,77.40 251.91,79.62 253.74,81.50 255.55,83.42 258.55,85.74"/>
    </edge>
    <edge id=":4675206315_0" function="internal">
        <lane id=":4675206315_0_0" index="0" disallow="tram rail_urban rail rail_electric rail_fast ship" speed="13.89" length="16.07" shape="251.84,102.70 251.80,107.25 251.73,110.46 250.95,113.44 248.80,117.31"/>
        <lane id=":4675206315_0_1" index="1" disallow="tram rail_urban rail rail_electric rail_fast ship" speed="13.89" length="16.07" shape="255.03,102.95 254.96,107.98 254.81,111.51 253.89,114.80 251.47,119.07"/>
    </edge>
    <edge id=":4675206315_2" function="internal">
        <lane id=":4675206315_2_0" index="0" disallow="tram rail_urban rail rail_electric rail_fast ship" speed="13.89" length="16.54" shape="260.15,104.87 257.31,108.90 255.63,111.84 254.04,114.84 251.47,119.07"/>
        <lane id=":4675206315_2_1" index="1" disallow="tram rail_urban rail rail_electric rail_fast ship" speed="13.89" length="16.54" shape="262.69,106.82 259.89,110.79 258.24,113.69 256.68,116.66 254.15,120.82"/>
    </edge>
    <edge id=":4675206316_0" function="internal">
        <lane id=":4675206316_0_0" index="0" disallow="tram rail_urban rail rail_electric rail_fast ship" speed="11.16" length="5.81" shape="251.90,152.01 252.00,150.28 252.10,149.07 252.46,147.95 253.34,146.51"/>
    </edge>
    <edge id=":4675206316_1" function="internal">
        <lane id=":4675206316_1_0" index="0" disallow="tram rail_urban rail rail_electric rail_fast ship" speed="13.89" length="6.49" shape="248.26,150.65 249.18,148.99 249.51,147.68 249.82,146.36 250.72,144.67"/>
        <lane id=":4675206316_1_1" index="1" disallow="tram rail_urban rail rail_electric rail_fast ship" speed="13.89" length="6.49" shape="245.67,148.77 246.59,147.12 246.90,145.81 247.21,144.51 248.10,142.84"/>
    </edge>
    <edge id=":4675206317_0" function="internal">
        <lane id=":4675206317_0_0" index="0" disallow="tram rail_urban rail rail_electric rail_fast ship" speed="16.67" length="15.90" shape="241.73,169.54 237.43,168.34 234.09,169.13 230.69,170.06 226.17,169.33"/>
        <lane id=":4675206317_0_1" index="1" disallow="tram rail_urban rail rail_electric rail_fast ship" speed="16.67" length="15.90" shape="240.34,172.43 236.10,171.26 232.80,172.06 229.43,173.01 224.98,172.29"/>
    </edge>
    <edge id=":4675206317_2" function="internal">
        <lane id=":4675206317_2_0" index="0" allow="bus bicycle" speed="3.65" length="4.68" shape="238.95,175.31 237.52,175.52 236.81,176.06 236.83,176.96 237.57,178.20"/>
    </edge>
    <edge id=":4675206317_3" function="internal">
        <lane id=":4675206317_3_0" index="0" allow="bus bicycle" speed="8.36" length="13.44" shape="225.29,178.78 227.59,176.85 230.40,176.11 233.72,176.56 237.57,178.20"/>
    </edge>
    <edge id=":4675206317_4" function="internal">
        <lane id=":4675206317_4_0" index="0" disallow="tram rail_urban rail rail_electric rail_fast ship" speed="13.89" length="22.24" shape="225.29,178.78 239.96,162.03"/>
        <lane id=":4675206317_4_1" index="1" disallow="tram rail_urban rail rail_electric rail_fast ship" speed="13.89" length="22.24" shape="225.29,178.78 227.68,175.36 230.30,171.03 233.44,165.91 237.37,160.14"/>
    </edge>
    <edge id=":4675206317_6" function="internal">
        <lane id=":4675206317_6_0" index="0" disallow="tram rail_urban rail rail_electric rail_fast ship" speed="5.62" length="7.93" shape="225.29,178.78 226.72,176.57 227.15,174.76 226.57,173.33 224.98,172.29"/>
    </edge>
    <edge id=":4675206320_0" function="internal">
        <lane id=":4675206320_0_0" index="0" disallow="tram rail_urban rail rail_electric rail_fast ship" speed="13.89" length="17.70" shape="191.95,220.88 195.96,216.89 199.72,214.52 203.31,213.07 206.82,211.84"/>
    </edge>
    <edge id=":4675206320_1" function="internal">
        <lane id=":4675206320_1_0" index="0" disallow="tram rail_urban rail rail_electric rail_fast ship" speed="13.89" length="14.50" shape="191.95,220.88 201.74,210.24"/>
        <lane id=":4675206320_1_1" index="1" disallow="tram rail_urban rail rail_electric rail_fast ship" speed="13.89" length="14.50" shape="189.48,218.85 199.29,208.17"/>
        <lane id=":4675206320_1_2" index="2" disallow="tram rail_urban rail rail_electric rail_fast ship" speed="13.89" length="14.50" shape="187.01,216.81 196.85,206.11"/>
    </edge>
    <edge id=":4675206321_0" function="internal">
        <lane id=":4675206321_0_0" index="0" disallow="tram rail_urban rail rail_electric rail_fast ship" speed="13.89" length="14.88" shape="167.47,220.13 167.03,223.56 166.50,226.72 165.30,230.07 162.87,234.04"/>
    </edge>
    <edge id=":4675206321_1" function="internal">
        <lane id=":4675206321_1_0" index="0" disallow="tram rail_urban rail rail_electric rail_fast ship" speed="13.89" length="14.92" shape="172.14,222.28 162.87,234.04"/>
        <lane id=":4675206321_1_1" index="1" disallow="tram rail_urban rail rail_electric rail_fast ship" speed="13.89" length="14.92" shape="174.65,224.27 165.45,235.93"/>
    </edge>
    <edge id=":4675216750_0" function="internal">
        <lane id=":4675216750_0_0" index="0" disallow="tram rail_urban rail rail_electric rail_fast ship" speed="6.28" length="9.10" shape="181.00,243.93 179.01,242.33 178.10,240.53 178.26,238.53 179.49,236.33"/>
    </edge>
    <edge id=":4675216750_1" function="internal">
        <lane id=":4675216750_1_0" index="0" disallow="tram rail_urban rail rail_electric rail_fast ship" speed="7.64" length="11.40" shape="169.12,246.87 171.06,245.28 173.44,244.73 176.25,245.22 179.49,246.76"/>
    </edge>
    <edge id=":4675216750_2" function="internal">
        <lane id=":4675216750_2_0" index="0" disallow="tram rail_urban rail rail_electric rail_fast ship" speed="13.89" length="14.73" shape="169.12,246.87 171.68,243.33 173.09,240.67 174.48,237.99 176.95,234.38"/>
        <lane id=":4675216750_2_1" index="1" disallow="tram rail_urban rail rail_electric rail_fast ship" speed="13.89" length="14.73" shape="166.64,244.85 169.18,241.33 170.59,238.69 171.96,236.02 174.42,232.43"/>
    </edge>
    <edge id=":4675216751_0" function="internal">
        <lane id=":4675216751_0_0" index="0" allow="bus bicycle" speed="16.67" length="8.10" shape="106.11,159.09 98.40,156.61"/>
    </edge>
    <edge id=":4675216751_1" function="internal">
        <lane id=":4675216751_1_0" index="0" disallow="tram rail_urban rail rail_electric rail_fast ship" speed="16.67" length="8.56" shape="95.56,165.78 97.72,166.97 98.82,168.47 99.92,169.99 102.06,171.23"/>
        <lane id=":4675216751_1_1" index="1" disallow="tram rail_urban rail rail_electric rail_fast ship" speed="16.67" length="8.56" shape="96.51,162.72 98.69,163.92 99.80,165.42 100.91,166.94 103.07,168.19"/>
        <lane id=":4675216751_1_2" index="2" disallow="tram rail_urban rail rail_electric rail_fast ship" speed="16.67" length="8.56" shape="97.46,159.66 99.65,160.87 100.78,162.38 101.91,163.90 104.09,165.16"/>
        <lane id=":4675216751_1_3" index="3" disallow="tram rail_urban rail rail_electric rail_fast ship" speed="16.67" length="8.56" shape="97.46,159.66 105.10,162.12"/>
    </edge>
    <edge id=":4720291978_0" function="internal">
        <lane id=":4720291978_0_0" index="0" allow="bus bicycle" speed="3.65" length="4.67" shape="367.66,294.40 369.09,294.54 369.91,294.17 370.11,293.30 369.68,291.92"/>
    </edge>
    <edge id=":4720294371_0" function="internal">
        <lane id=":4720294371_0_0" index="0" allow="bus bicycle" speed="3.65" length="4.67" shape="338.57,290.93 340.01,291.07 340.82,290.70 341.02,289.82 340.59,288.45"/>
    </edge>
    <edge id=":5144024523_0" function="internal">
        <lane id=":5144024523_0_0" index="0" disallow="tram rail_urban rail rail_electric rail_fast ship" speed="15.28" length="46.59" shape="285.85,194.59 270.67,182.23 259.85,172.94 253.38,166.72 251.27,163.59"/>
    </edge>
    <edge id=":5144024523_1" function="internal">
        <lane id=":5144024523_1_0" index="0" disallow="tram rail_urban rail rail_electric rail_fast ship" speed="16.67" length="43.37" shape="283.85,197.09 275.15,190.37 266.43,184.18 257.44,178.40 247.92,172.91"/>
        <lane id=":5144024523_1_1" index="1" disallow="tram rail_urban rail rail_electric rail_fast ship" speed="16.67" length="42.81" shape="281.85,199.59 273.22,192.91 264.67,186.83 255.84,181.16 246.39,175.72"/>
        <lane id=":5144024523_1_2" index="2" disallow="tram rail_urban rail rail_electric rail_fast ship" speed="16.67" length="42.64" shape="281.85,199.59 272.99,193.35 263.90,188.24 254.55,183.53 244.85,178.53"/>
    </edge>
    <edge id=":5144024523_4" function="internal">