<?xml version="1.0" encoding="UTF-8"?>

<!-- generated on 2023-07-19 15:22:26 by Eclipse SUMO netconvert Version 1.17.0
<configuration xmlns:xsi="http://www.w3.org/2001/XMLSchema-instance" xsi:noNamespaceSchemaLocation="http://sumo.dlr.de/xsd/netconvertConfiguration.xsd">

    <input>
        <sumo-net-file value="osm.net.xml.gz"/>
    </input>

    <output>
        <output-file value="osm.net.xml"/>
        <output.street-names value="true"/>
    </output>

    <processing>
        <geometry.min-radius.fix.railways value="false"/>
        <geometry.max-grade.fix value="false"/>
        <offset.disable-normalization value="true"/>
        <lefthand value="1"/>
    </processing>

    <junctions>
        <no-turnarounds value="true"/>
        <junctions.corner-detail value="5"/>
        <junctions.limit-turn-speed value="5.50"/>
        <rectangular-lane-cut value="0"/>
    </junctions>

    <pedestrian>
        <walkingareas value="0"/>
    </pedestrian>

</configuration>
-->

<net version="1.16" junctionCornerDetail="5" lefthand="true" limitTurnSpeed="5.50" xmlns:xsi="http://www.w3.org/2001/XMLSchema-instance" xsi:noNamespaceSchemaLocation="http://sumo.dlr.de/xsd/net_file.xsd">

    <location netOffset="-361179.06,-153251.57" convBoundary="-0.32,0.00,1215.89,625.47" origBoundary="103.752186,1.386184,103.763113,1.391840" projParameter="+proj=utm +zone=48 +ellps=WGS84 +datum=WGS84 +units=m +no_defs"/>

    <type id="highway.bridleway" priority="1" numLanes="1" speed="2.78" allow="pedestrian" oneway="1" width="2.00"/>
    <type id="highway.bus_guideway" priority="1" numLanes="1" speed="27.78" allow="bus" oneway="1"/>
    <type id="highway.cycleway" priority="1" numLanes="1" speed="5.56" allow="bicycle" oneway="0" width="1.00"/>
    <type id="highway.footway" priority="1" numLanes="1" speed="2.78" allow="pedestrian" oneway="1" width="2.00"/>
    <type id="highway.ford" priority="1" numLanes="1" speed="2.78" allow="army" oneway="0"/>
    <type id="highway.living_street" priority="2" numLanes="1" speed="2.78" disallow="tram rail_urban rail rail_electric rail_fast ship" oneway="0"/>
    <type id="highway.motorway" priority="14" numLanes="2" speed="39.44" allow="private emergency authority army vip passenger hov taxi bus coach delivery truck trailer motorcycle evehicle custom1 custom2" oneway="1"/>
    <type id="highway.motorway_link" priority="9" numLanes="1" speed="22.22" allow="private emergency authority army vip passenger hov taxi bus coach delivery truck trailer motorcycle evehicle custom1 custom2" oneway="1"/>
    <type id="highway.path" priority="1" numLanes="1" speed="5.56" allow="pedestrian bicycle" oneway="0" width="2.00"/>
    <type id="highway.pedestrian" priority="1" numLanes="1" speed="2.78" allow="pedestrian" oneway="1" width="2.00"/>
    <type id="highway.primary" priority="12" numLanes="2" speed="27.78" disallow="tram rail_urban rail rail_electric rail_fast ship" oneway="0"/>
    <type id="highway.primary_link" priority="7" numLanes="1" speed="22.22" disallow="tram rail_urban rail rail_electric rail_fast ship" oneway="0"/>
    <type id="highway.raceway" priority="15" numLanes="2" speed="83.33" allow="vip" oneway="0"/>
    <type id="highway.residential" priority="3" numLanes="1" speed="13.89" disallow="tram rail_urban rail rail_electric rail_fast ship" oneway="0"/>
    <type id="highway.secondary" priority="11" numLanes="1" speed="27.78" disallow="tram rail_urban rail rail_electric rail_fast ship" oneway="0"/>
    <type id="highway.secondary_link" priority="6" numLanes="1" speed="22.22" disallow="tram rail_urban rail rail_electric rail_fast ship" oneway="0"/>
    <type id="highway.service" priority="1" numLanes="1" speed="5.56" allow="pedestrian delivery bicycle" oneway="0"/>
    <type id="highway.stairs" priority="1" numLanes="1" speed="1.39" allow="pedestrian" oneway="1" width="2.00"/>
    <type id="highway.step" priority="1" numLanes="1" speed="1.39" allow="pedestrian" oneway="1" width="2.00"/>
    <type id="highway.steps" priority="1" numLanes="1" speed="1.39" allow="pedestrian" oneway="1" width="2.00"/>
    <type id="highway.tertiary" priority="10" numLanes="1" speed="22.22" disallow="tram rail_urban rail rail_electric rail_fast ship" oneway="0"/>
    <type id="highway.tertiary_link" priority="5" numLanes="1" speed="22.22" disallow="tram rail_urban rail rail_electric rail_fast ship" oneway="0"/>
    <type id="highway.track" priority="1" numLanes="1" speed="5.56" allow="pedestrian motorcycle moped bicycle" oneway="0"/>
    <type id="highway.trunk" priority="13" numLanes="2" speed="27.78" disallow="pedestrian bicycle tram rail_urban rail rail_electric rail_fast ship" oneway="0"/>
    <type id="highway.trunk_link" priority="8" numLanes="1" speed="22.22" disallow="pedestrian bicycle tram rail_urban rail rail_electric rail_fast ship" oneway="0"/>
    <type id="highway.unclassified" priority="4" numLanes="1" speed="13.89" disallow="tram rail_urban rail rail_electric rail_fast ship" oneway="0"/>
    <type id="highway.unsurfaced" priority="1" numLanes="1" speed="8.33" disallow="tram rail_urban rail rail_electric rail_fast ship" oneway="0"/>
    <type id="railway.highspeed" priority="21" numLanes="1" speed="69.44" allow="rail_fast" oneway="1"/>
    <type id="railway.light_rail" priority="19" numLanes="1" speed="27.78" allow="rail_urban" oneway="1"/>
    <type id="railway.preserved" priority="16" numLanes="1" speed="27.78" allow="rail" oneway="1"/>
    <type id="railway.rail" priority="20" numLanes="1" speed="44.44" allow="rail" oneway="1"/>
    <type id="railway.subway" priority="18" numLanes="1" speed="27.78" allow="rail_urban" oneway="1"/>
    <type id="railway.tram" priority="17" numLanes="1" speed="13.89" allow="tram" oneway="1"/>

    <edge id=":1474198012_0" function="internal">
        <lane id=":1474198012_0_0" index="0" allow="private emergency authority army vip passenger hov taxi bus coach delivery truck trailer motorcycle evehicle custom1 custom2" speed="13.89" length="7.56" shape="496.00,78.12 494.16,76.85 492.99,75.84 492.03,74.63 490.83,72.75"/>
    </edge>
    <edge id=":1474198012_1" function="internal">
        <lane id=":1474198012_1_0" index="0" allow="private emergency authority army vip passenger hov taxi bus coach delivery truck trailer motorcycle evehicle custom1 custom2" speed="13.89" length="7.65" shape="494.22,80.78 492.43,79.38 491.35,78.24 490.26,77.10 488.44,75.75"/>
        <lane id=":1474198012_1_1" index="1" allow="private emergency authority army vip passenger hov taxi bus coach delivery truck trailer motorcycle evehicle custom1 custom2" speed="13.89" length="7.65" shape="492.43,83.43 490.66,82.05 489.59,80.91 488.52,79.79 486.72,78.44"/>
    </edge>
    <edge id=":1481210268_0" function="internal">
        <lane id=":1481210268_0_0" index="0" allow="private emergency authority army vip passenger hov taxi bus coach delivery truck trailer motorcycle evehicle custom1 custom2" speed="13.89" length="17.48" shape="622.39,181.98 620.31,179.05 618.62,175.68 616.47,171.79 612.99,167.31"/>
    </edge>
    <edge id=":1481210268_1" function="internal">
        <lane id=":1481210268_1_0" index="0" allow="private emergency authority army vip passenger hov taxi bus coach delivery truck trailer motorcycle evehicle custom1 custom2" speed="13.89" length="16.83" shape="619.55,184.08 617.18,179.55 615.68,176.36 613.88,173.37 610.64,169.49"/>
        <lane id=":1481210268_1_1" index="1" allow="private emergency authority army vip passenger hov taxi bus coach delivery truck trailer motorcycle evehicle custom1 custom2" speed="13.89" length="16.83" shape="616.78,185.67 614.51,181.33 613.09,178.26 611.39,175.39 608.29,171.66"/>
    </edge>
    <edge id=":1481210305_0" function="internal">
        <lane id=":1481210305_0_0" index="0" allow="private emergency authority army vip passenger hov taxi bus coach delivery truck trailer motorcycle evehicle custom1 custom2" speed="13.89" length="8.20" shape="428.68,338.49 431.03,339.01 432.54,339.75 434.06,340.50 436.40,341.06"/>
        <lane id=":1481210305_0_1" index="1" allow="private emergency authority army vip passenger hov taxi bus coach delivery truck trailer motorcycle evehicle custom1 custom2" speed="13.89" length="8.20" shape="428.68,338.49 431.09,338.52 432.75,338.16 434.41,337.82 436.82,337.89"/>
    </edge>
    <edge id=":1500901721_0" function="internal">
        <lane id=":1500901721_0_0" index="0" allow="private emergency authority army vip passenger hov taxi bus coach delivery truck trailer motorcycle evehicle custom1 custom2" speed="13.89" length="8.17" shape="470.40,261.91 468.01,261.82 466.39,261.37 464.77,260.89 462.38,260.71"/>
    </edge>
    <edge id=":1500901724_0" function="internal">
        <lane id=":1500901724_0_0" index="0" allow="private emergency authority army vip passenger hov taxi bus coach delivery truck trailer motorcycle evehicle custom1 custom2" speed="25.00" length="2.80" shape="269.57,271.57 266.65,271.75"/>
        <lane id=":1500901724_0_1" index="1" allow="private emergency authority army vip passenger hov taxi bus coach delivery truck trailer motorcycle evehicle custom1 custom2" speed="25.00" length="2.80" shape="269.72,274.76 266.93,274.93"/>
        <lane id=":1500901724_0_2" index="2" allow="private emergency authority army vip passenger hov taxi bus coach delivery truck trailer motorcycle evehicle custom1 custom2" speed="25.00" length="2.80" shape="269.86,277.96 267.20,278.12"/>
    </edge>
    <edge id=":1500901724_3" function="internal">
        <lane id=":1500901724_3_0" index="0" allow="private emergency authority army vip passenger hov taxi bus coach delivery truck trailer motorcycle evehicle custom1 custom2" speed="19.45" length="3.08" shape="269.44,268.65 268.53,268.56 267.91,268.50 267.28,268.50 266.37,268.56"/>
    </edge>
    <edge id=":1500901729_0" function="internal">
        <lane id=":1500901729_0_0" index="0" allow="private emergency authority army vip passenger hov taxi bus coach delivery truck trailer motorcycle evehicle custom1 custom2" speed="13.89" length="12.32" shape="370.17,317.78 373.21,316.78 375.70,316.04 378.43,315.65 382.20,315.73"/>
    </edge>
    <edge id=":1500901729_1" function="internal">
        <lane id=":1500901729_1_0" index="0" allow="private emergency authority army vip passenger hov taxi bus coach delivery truck trailer motorcycle evehicle custom1 custom2" speed="13.89" length="12.28" shape="370.10,312.48 373.66,313.62 376.07,314.55 378.52,315.26 382.20,315.73"/>
        <lane id=":1500901729_1_1" index="1" allow="private emergency authority army vip passenger hov taxi bus coach delivery truck trailer motorcycle evehicle custom1 custom2" speed="13.89" length="12.28" shape="370.94,309.39 374.33,310.49 376.62,311.39 378.94,312.08 382.44,312.54"/>
    </edge>
    <edge id=":236725119_0" function="internal">
        <lane id=":236725119_0_0" index="0" disallow="tram rail_urban rail rail_electric rail_fast ship" speed="16.67" length="8.21" shape="346.40,232.29 345.13,234.33 343.94,235.53 342.75,236.73 341.47,238.78"/>
        <lane id=":236725119_0_1" index="1" disallow="tram rail_urban rail rail_electric rail_fast ship" speed="16.67" length="8.21" shape="349.28,233.68 348.01,235.73 346.82,236.93 345.62,238.13 344.35,240.18"/>
        <lane id=":236725119_0_2" index="2" disallow="tram rail_urban rail rail_electric rail_fast ship" speed="16.67" length="8.21" shape="352.16,235.07 350.89,237.12 349.70,238.32 348.50,239.53 347.23,241.58"/>
        <lane id=":236725119_0_3" index="3" disallow="tram rail_urban rail rail_electric rail_fast ship" speed="16.67" length="8.21" shape="352.16,235.07 351.34,237.34 351.14,239.02 350.93,240.71 350.11,242.98"/>
    </edge>
    <edge id=":236726630_0" function="internal">
        <lane id=":236726630_0_0" index="0" allow="private emergency authority army vip passenger hov taxi bus coach delivery truck trailer motorcycle evehicle custom1 custom2" speed="15.28" length="8.88" shape="436.36,120.63 437.87,118.53 439.25,117.39 440.86,116.46 443.09,115.03"/>
    </edge>
    <edge id=":236726630_1" function="internal">
        <lane id=":236726630_1_0" index="0" disallow="tram rail_urban rail rail_electric rail_fast ship" speed="16.67" length="9.75" shape="433.62,118.96 435.36,116.78 436.99,115.65 438.66,114.54 440.52,112.43"/>
        <lane id=":236726630_1_1" index="1" disallow="tram rail_urban rail rail_electric rail_fast ship" speed="16.67" length="9.75" shape="430.89,117.30 432.66,115.08 434.30,113.92 435.99,112.78 437.87,110.63"/>
        <lane id=":236726630_1_2" index="2" disallow="tram rail_urban rail rail_electric rail_fast ship" speed="16.67" length="9.75" shape="428.15,115.64 429.95,113.38 431.61,112.18 433.32,111.02 435.23,108.83"/>
    </edge>
    <edge id=":4600334151_0" function="internal">
        <lane id=":4600334151_0_0" index="0" disallow="tram rail_urban rail rail_electric rail_fast ship" speed="16.67" length="8.21" shape="409.39,161.92 410.84,160.00 412.14,158.91 413.44,157.83 414.90,155.92"/>
        <lane id=":4600334151_0_1" index="1" disallow="tram rail_urban rail rail_electric rail_fast ship" speed="16.67" length="8.21" shape="409.39,161.92 410.42,159.74 410.77,158.08 411.13,156.43 412.17,154.25"/>
        <lane id=":4600334151_0_2" index="2" disallow="tram rail_urban rail rail_electric rail_fast ship" speed="16.67" length="8.21" shape="406.65,160.26 407.68,158.08 408.04,156.43 408.40,154.77 409.43,152.59"/>
        <lane id=":4600334151_0_3" index="3" disallow="tram rail_urban rail rail_electric rail_fast ship" speed="16.67" length="8.21" shape="403.91,158.61 404.94,156.43 405.30,154.77 405.66,153.11 406.70,150.93"/>
    </edge>
    <edge id=":4602629724_0" function="internal">
        <lane id=":4602629724_0_0" index="0" allow="private emergency authority army vip passenger hov taxi bus coach delivery truck trailer motorcycle evehicle custom1 custom2" speed="13.89" length="16.74" shape="477.73,94.58 481.38,94.57 485.03,94.94 488.95,96.25 493.43,99.06"/>
    </edge>
    <edge id=":4602629724_1" function="internal">
        <lane id=":4602629724_1_0" index="0" allow="private emergency authority army vip passenger hov taxi bus coach delivery truck trailer motorcycle evehicle custom1 custom2" speed="13.89" length="16.80" shape="479.80,89.34 493.43,99.06"/>
        <lane id=":4602629724_1_1" index="1" allow="private emergency authority army vip passenger hov taxi bus coach delivery truck trailer motorcycle evehicle custom1 custom2" speed="13.89" length="16.80" shape="481.66,86.73 495.38,96.52"/>
    </edge>
    <edge id=":5599806365_0" function="internal">
        <lane id=":5599806365_0_0" index="0" disallow="tram rail_urban rail rail_electric rail_fast ship" speed="16.67" length="6.83" shape="306.75,321.22 305.67,322.93 304.53,323.87 303.43,324.82 302.50,326.58"/>
        <lane id=":5599806365_0_1" index="1" disallow="tram rail_urban rail rail_electric rail_fast ship" speed="16.67" length="6.83" shape="309.69,322.49 308.64,324.13 307.52,325.02 306.44,325.92 305.53,327.61"/>
    </edge>
    <edge id=":5599806365_2" function="internal">
        <lane id=":5599806365_2_0" index="0" disallow="pedestrian tram rail_urban rail rail_electric rail_fast ship" speed="5.62" length="5.54" shape="313.13,326.48 311.47,326.42 310.15,326.76 309.18,327.50 308.56,328.64"/>
    </edge>
    <edge id=":5599806370_0" function="internal">
        <lane id=":5599806370_0_0" index="0" disallow="tram rail_urban rail rail_electric rail_fast ship" speed="16.67" length="5.76" shape="324.14,333.94 324.54,332.34 324.52,331.17 324.52,330.00 324.98,328.42"/>
        <lane id=":5599806370_0_1" index="1" disallow="tram rail_urban rail rail_electric rail_fast ship" speed="16.67" length="5.76" shape="321.15,332.79 321.56,331.16 321.56,329.96 321.57,328.77 322.04,327.15"/>
        <lane id=":5599806370_0_2" index="2" disallow="tram rail_urban rail rail_electric rail_fast ship" speed="16.67" length="5.76" shape="318.16,331.65 318.59,329.97 318.59,328.75 318.62,327.53 319.11,325.89"/>
    </edge>
    <edge id=":5599806370_3" function="internal">
        <lane id=":5599806370_3_0" index="0" disallow="pedestrian tram rail_urban rail rail_electric rail_fast ship" speed="4.94" length="4.69" shape="315.18,330.50 315.50,329.18 315.37,328.10 314.79,327.24 313.76,326.61"/>
    </edge>
    <edge id=":cluster_1474198009_1474198010_1500901713_1500901715_0" function="internal">
        <lane id=":cluster_1474198009_1474198010_1500901713_1500901715_0_0" index="0" disallow="pedestrian bicycle tram rail_urban rail rail_electric rail_fast ship" speed="16.67" length="26.07" shape="452.63,46.24 439.46,68.67"/>
        <lane id=":cluster_1474198009_1474198010_1500901713_1500901715_0_1" index="1" disallow="pedestrian bicycle tram rail_urban rail rail_electric rail_fast ship" speed="16.67" length="26.07" shape="455.33,47.96 442.12,70.44"/>
        <lane id=":cluster_1474198009_1474198010_1500901713_1500901715_0_2" index="2" disallow="pedestrian bicycle tram rail_urban rail rail_electric rail_fast ship" speed="16.67" length="26.07" shape="458.02,49.69 444.78,72.22"/>
    </edge>
    <edge id=":cluster_1474198009_1474198010_1500901713_1500901715_3" function="internal">
        <lane id=":cluster_1474198009_1474198010_1500901713_1500901715_3_0" index="0" allow="private emergency authority army vip passenger hov taxi bus coach delivery truck trailer motorcycle evehicle custom1 custom2" speed="12.80" length="19.11" shape="460.72,51.41 457.34,59.66 457.75,67.56 458.86,69.56"/>
        <lane id=":cluster_1474198009_1474198010_1500901713_1500901715_3_1" index="1" allow="private emergency authority army vip passenger hov taxi bus coach delivery truck trailer motorcycle evehicle custom1 custom2" speed="12.35" length="17.03" shape="460.72,51.41 458.08,58.47 459.00,65.51 460.29,67.52"/>
    </edge>
    <edge id=":cluster_1474198009_1474198010_1500901713_1500901715_5" function="internal">
        <lane id=":cluster_1474198009_1474198010_1500901713_1500901715_5_0" index="0" disallow="pedestrian bicycle tram rail_urban rail rail_electric rail_fast ship" speed="6.09" length="13.57" shape="460.72,51.41 460.82,56.67 462.50,59.46 465.74,59.81 467.38,59.08"/>
    </edge>
    <edge id=":cluster_1474198009_1474198010_1500901713_1500901715_13" function="internal">
        <lane id=":cluster_1474198009_1474198010_1500901713_1500901715_13_0" index="0" allow="private emergency authority army vip passenger hov taxi bus coach delivery truck trailer motorcycle evehicle custom1 custom2" speed="12.80" length="17.09" shape="458.86,69.56 461.94,75.11 469.91,82.30"/>
    </edge>
    <edge id=":cluster_1474198009_1474198010_1500901713_1500901715_14" function="internal">
        <lane id=":cluster_1474198009_1474198010_1500901713_1500901715_14_0" index="0" allow="private emergency authority army vip passenger hov taxi bus coach delivery truck trailer motorcycle evehicle custom1 custom2" speed="12.35" length="16.60" shape="460.29,67.52 463.49,72.53 471.53,79.52"/>
    </edge>
    <edge id=":cluster_1474198009_1474198010_1500901713_1500901715_15" function="internal">
        <lane id=":cluster_1474198009_1474198010_1500901713_1500901715_15_0" index="0" disallow="pedestrian bicycle tram rail_urban rail rail_electric rail_fast ship" speed="6.09" length="3.46" shape="467.38,59.08 470.55,57.69"/>
    </edge>
    <edge id=":cluster_1474198009_1474198010_1500901713_1500901715_6" function="internal">
        <lane id=":cluster_1474198009_1474198010_1500901713_1500901715_6_0" index="0" allow="private emergency authority army vip passenger hov taxi bus coach delivery truck trailer motorcycle evehicle custom1 custom2" speed="13.23" length="40.16" shape="477.71,68.89 466.37,63.16 456.65,61.51 448.57,63.94 442.12,70.44"/>
        <lane id=":cluster_1474198009_1474198010_1500901713_1500901715_6_1" index="1" allow="private emergency authority army vip passenger hov taxi bus coach delivery truck trailer motorcycle evehicle custom1 custom2" speed="12.41" length="35.22" shape="476.10,71.66 465.98,66.48 457.39,64.84 450.32,66.76 444.78,72.22"/>
    </edge>
    <edge id=":cluster_1474198009_1474198010_1500901713_1500901715_8" function="internal">
        <lane id=":cluster_1474198009_1474198010_1500901713_1500901715_8_0" index="0" allow="private emergency authority army vip passenger hov taxi bus coach delivery truck trailer motorcycle evehicle custom1 custom2" speed="5.50" length="13.29" shape="476.10,71.66 472.01,71.91 469.88,73.30 469.72,75.84 471.53,79.52"/>
    </edge>
    <edge id=":cluster_1474198009_1474198010_1500901713_1500901715_9" function="internal">
        <lane id=":cluster_1474198009_1474198010_1500901713_1500901715_9_0" index="0" disallow="pedestrian bicycle tram rail_urban rail rail_electric rail_fast ship" speed="16.67" length="26.45" shape="460.68,82.82 475.94,61.14"/>
        <lane id=":cluster_1474198009_1474198010_1500901713_1500901715_9_1" index="1" disallow="pedestrian bicycle tram rail_urban rail rail_electric rail_fast ship" speed="16.67" length="26.45" shape="458.02,81.04 473.24,59.41"/>
        <lane id=":cluster_1474198009_1474198010_1500901713_1500901715_9_2" index="2" disallow="pedestrian bicycle tram rail_urban rail rail_electric rail_fast ship" speed="16.67" length="26.45" shape="455.36,79.27 470.55,57.69"/>
    </edge>
    <edge id=":cluster_1474198009_1474198010_1500901713_1500901715_12" function="internal">
        <lane id=":cluster_1474198009_1474198010_1500901713_1500901715_12_0" index="0" disallow="tram rail_urban rail rail_electric rail_fast ship" speed="6.33" length="15.24" shape="455.36,79.27 455.36,73.54 453.60,70.45 450.07,70.01 447.85,70.94"/>
    </edge>
    <edge id=":cluster_1474198009_1474198010_1500901713_1500901715_16" function="internal">
        <lane id=":cluster_1474198009_1474198010_1500901713_1500901715_16_0" index="0" disallow="tram rail_urban rail rail_electric rail_fast ship" speed="6.33" length="3.32" shape="447.85,70.94 444.78,72.22"/>
    </edge>
    <edge id=":cluster_1500901726_1500901727_0" function="internal">
        <lane id=":cluster_1500901726_1500901727_0_0" index="0" disallow="tram rail_urban rail rail_electric rail_fast ship" speed="9.53" length="29.07" shape="319.06,284.89 325.29,273.85 326.85,272.65 323.75,281.30 315.98,299.81"/>
        <lane id=":cluster_1500901726_1500901727_0_1" index="1" disallow="tram rail_urban rail rail_electric rail_fast ship" speed="16.67" length="29.07" shape="321.47,287.21 320.17,291.14 320.09,294.09 320.06,297.07 318.92,301.07"/>
    </edge>
    <edge id=":cluster_1500901726_1500901727_2" function="internal">
        <lane id=":cluster_1500901726_1500901727_2_0" index="0" allow="private emergency authority army vip passenger hov taxi bus coach delivery truck trailer motorcycle evehicle custom1 custom2" speed="9.87" length="12.62" shape="324.34,288.50 322.95,293.92 326.15,298.28 327.57,299.04"/>
        <lane id=":cluster_1500901726_1500901727_2_1" index="1" allow="private emergency authority army vip passenger hov taxi bus coach delivery truck trailer motorcycle evehicle custom1 custom2" speed="8.82" length="7.01" shape="327.29,289.82 326.66,292.98 328.97,295.98"/>
    </edge>
    <edge id=":cluster_1500901726_1500901727_4" function="internal">
        <lane id=":cluster_1500901726_1500901727_4_0" index="0" disallow="tram rail_urban rail rail_electric rail_fast ship" speed="4.98" length="6.71" shape="327.29,289.82 327.80,292.89 329.02,294.39 330.68,294.32"/>
    </edge>
    <edge id=":cluster_1500901726_1500901727_8" function="internal">
        <lane id=":cluster_1500901726_1500901727_8_0" index="0" allow="private emergency authority army vip passenger hov taxi bus coach delivery truck trailer motorcycle evehicle custom1 custom2" speed="9.87" length="15.11" shape="327.57,299.04 332.75,301.79 341.54,304.65"/>
    </edge>
    <edge id=":cluster_1500901726_1500901727_9" function="internal">
        <lane id=":cluster_1500901726_1500901727_9_0" index="0" allow="private emergency authority army vip passenger hov taxi bus coach delivery truck trailer motorcycle evehicle custom1 custom2" speed="8.82" length="14.59" shape="328.97,295.98 334.21,298.85 342.39,301.56"/>
    </edge>
    <edge id=":cluster_1500901726_1500901727_10" function="internal">
        <lane id=":cluster_1500901726_1500901727_10_0" index="0" disallow="tram rail_urban rail rail_electric rail_fast ship" speed="4.98" length="3.38" shape="330.68,294.32 330.95,294.31 333.59,292.65"/>
    </edge>
    <edge id=":cluster_1500901726_1500901727_5" function="internal">
        <lane id=":cluster_1500901726_1500901727_5_0" index="0" disallow="tram rail_urban rail rail_electric rail_fast ship" speed="16.67" length="13.49" shape="333.99,307.57 339.43,295.28"/>
        <lane id=":cluster_1500901726_1500901727_5_1" index="1" disallow="tram rail_urban rail rail_electric rail_fast ship" speed="16.67" length="13.49" shape="331.06,306.31 336.51,293.96"/>
        <lane id=":cluster_1500901726_1500901727_5_2" index="2" disallow="tram rail_urban rail rail_electric rail_fast ship" speed="16.67" length="13.49" shape="328.12,305.04 333.59,292.65"/>
    </edge>

    <edge id="133983834" from="158046116" to="4600357233" name="Kranji Expressway" priority="14" type="highway.motorway" spreadType="center" shape="154.16,307.68 218.79,298.98 247.39,296.31 299.84,292.12 335.52,290.96 396.16,290.79 472.08,293.23 495.87,294.53 525.62,296.60 551.37,299.24 590.66,304.71 636.83,311.89 687.01,319.78 733.36,329.40 766.67,337.45 799.39,347.39">
        <lane id="133983834_0" index="0" allow="private emergency authority army vip passenger hov taxi bus coach delivery truck trailer motorcycle evehicle custom1 custom2" speed="25.00" length="651.38" shape="154.59,310.85 219.15,302.16 247.67,299.50 300.02,295.32 335.58,294.16 396.11,293.99 471.94,296.43 495.67,297.72 525.35,299.79 550.99,302.42 590.19,307.88 636.34,315.05 686.44,322.93 732.66,332.52 765.83,340.54 798.46,350.45">
            <param key="origId" value="133983834 133983828 136807057 1136107295"/>
        </lane>
        <lane id="133983834_1" index="1" allow="private emergency authority army vip passenger hov taxi bus coach delivery truck trailer motorcycle evehicle custom1 custom2" speed="25.00" length="651.38" shape="154.16,307.68 218.79,298.98 247.39,296.31 299.84,292.12 335.52,290.96 396.16,290.79 472.08,293.23 495.87,294.53 525.62,296.60 551.37,299.24 590.66,304.71 636.83,311.89 687.01,319.78 733.36,329.40 766.67,337.45 799.39,347.39">
            <param key="origId" value="133983834 133983828 136807057 1136107295"/>
        </lane>
        <lane id="133983834_2" index="2" allow="private emergency authority army vip passenger hov taxi bus coach delivery truck trailer motorcycle evehicle custom1 custom2" speed="25.00" length="651.38" shape="153.73,304.51 218.43,295.80 247.11,293.12 299.66,288.92 335.46,287.76 396.21,287.59 472.22,290.03 496.07,291.34 525.89,293.41 551.75,296.06 591.13,301.54 637.32,308.73 687.58,316.63 734.06,326.28 767.51,334.36 800.32,344.33">
            <param key="origId" value="133983834 133983828 136807057 1136107295"/>
        </lane>
        <param key="ref" value="KJE"/>
    </edge>
    <edge id="133983839" from="1474198012" to="1474198007" priority="9" type="highway.motorway_link" spreadType="center" shape="511.56,92.42 494.07,76.69 491.55,73.91 489.60,70.79 486.82,66.03 485.41,61.84 484.74,58.96 484.47,55.82 484.57,51.40 484.86,47.38 491.24,32.42">
        <lane id="133983839_0" index="0" allow="private emergency authority army vip passenger hov taxi bus coach delivery truck trailer motorcycle evehicle custom1 custom2" speed="13.89" length="18.49" shape="490.83,72.75 489.60,70.79 486.82,66.03 485.41,61.84 484.74,58.96 484.47,55.82 484.47,55.68">
            <param key="origId" value="133983839"/>
        </lane>
    </edge>
    <edge id="134767269" from="1481210305" to="1481210268" priority="9" type="highway.motorway_link" spreadType="center" shape="432.65,338.95 482.88,345.61 519.63,347.42 537.78,346.77 555.92,344.75 570.77,341.13 584.57,336.13 594.58,331.33 604.26,325.16 612.11,317.19 618.58,308.55 630.49,277.12 633.60,262.19 634.89,247.52 634.24,233.15 632.04,217.75 622.88,193.07 607.15,165.72">
        <lane id="134767269_0" index="0" allow="private emergency authority army vip passenger hov taxi bus coach delivery truck trailer motorcycle evehicle custom1 custom2" speed="13.89" length="323.71" shape="436.40,341.06 482.74,347.20 519.62,349.02 537.90,348.37 556.20,346.33 571.23,342.66 585.19,337.61 595.36,332.73 605.27,326.41 613.33,318.24 620.00,309.33 632.03,277.57 635.19,262.42 636.49,247.55 635.83,233.00 633.60,217.35 624.33,192.39 619.55,184.08">
            <param key="origId" value="134767269"/>
        </lane>
        <lane id="134767269_1" index="1" allow="private emergency authority army vip passenger hov taxi bus coach delivery truck trailer motorcycle evehicle custom1 custom2" speed="13.89" length="323.71" shape="436.82,337.89 483.02,344.02 519.64,345.82 537.66,345.17 555.64,343.17 570.31,339.60 583.95,334.65 593.80,329.93 603.25,323.91 610.89,316.14 617.16,307.77 628.95,276.67 632.01,261.96 633.29,247.49 632.65,233.30 630.48,218.15 621.43,193.75 616.78,185.67">
            <param key="origId" value="134767269"/>
        </lane>
    </edge>
    <edge id="134767273" from="158044158" to="1481210305" name="Kranji Expressway" priority="9" type="highway.motorway_link" spreadType="center" shape="15.14,335.37 67.46,331.34 88.36,327.85 109.28,325.22 128.74,323.68 148.09,322.79 175.61,321.41 203.29,320.21 224.24,320.21 245.30,320.88 273.91,322.22 303.08,324.04 325.08,326.16 347.21,328.95 432.65,338.95">