<?xml version="1.0" encoding="UTF-8"?>

<!-- generated on 2023-07-14 15:03:13 by Eclipse SUMO netconvert Version 1.17.0
<configuration xmlns:xsi="http://www.w3.org/2001/XMLSchema-instance" xsi:noNamespaceSchemaLocation="http://sumo.dlr.de/xsd/netconvertConfiguration.xsd">

    <input>
        <sumo-net-file value="osm.net.xml.gz"/>
    </input>

    <output>
        <output-file value="osm.net.xml"/>
        <output.street-names value="true"/>
    </output>

    <processing>
        <geometry.min-radius.fix.railways value="false"/>
        <geometry.max-grade.fix value="false"/>
        <offset.disable-normalization value="true"/>
        <lefthand value="0"/>
    </processing>

    <junctions>
        <no-turnarounds value="true"/>
        <junctions.corner-detail value="5"/>
        <junctions.limit-turn-speed value="5.50"/>
        <rectangular-lane-cut value="0"/>
    </junctions>

    <pedestrian>
        <walkingareas value="0"/>
    </pedestrian>

</configuration>
-->

<net version="1.16" junctionCornerDetail="5" limitTurnSpeed="5.50" xmlns:xsi="http://www.w3.org/2001/XMLSchema-instance" xsi:noNamespaceSchemaLocation="http://sumo.dlr.de/xsd/net_file.xsd">

    <location netOffset="-362634.88,-142646.72" convBoundary="0.00,0.00,606.92,495.06" origBoundary="103.765317,1.290269,103.770774,1.294744" projParameter="+proj=utm +zone=48 +ellps=WGS84 +datum=WGS84 +units=m +no_defs"/>

    <type id="highway.bridleway" priority="1" numLanes="1" speed="2.78" allow="pedestrian" oneway="1" width="2.00"/>
    <type id="highway.bus_guideway" priority="1" numLanes="1" speed="27.78" allow="bus" oneway="1"/>
    <type id="highway.cycleway" priority="1" numLanes="1" speed="5.56" allow="bicycle" oneway="0" width="1.00"/>
    <type id="highway.footway" priority="1" numLanes="1" speed="2.78" allow="pedestrian" oneway="1" width="2.00"/>
    <type id="highway.ford" priority="1" numLanes="1" speed="2.78" allow="army" oneway="0"/>
    <type id="highway.living_street" priority="2" numLanes="1" speed="2.78" disallow="tram rail_urban rail rail_electric rail_fast ship" oneway="0"/>
    <type id="highway.motorway" priority="14" numLanes="2" speed="39.44" allow="private emergency authority army vip passenger hov taxi bus coach delivery truck trailer motorcycle evehicle custom1 custom2" oneway="1"/>
    <type id="highway.motorway_link" priority="9" numLanes="1" speed="22.22" allow="private emergency authority army vip passenger hov taxi bus coach delivery truck trailer motorcycle evehicle custom1 custom2" oneway="1"/>
    <type id="highway.path" priority="1" numLanes="1" speed="5.56" allow="pedestrian bicycle" oneway="0" width="2.00"/>
    <type id="highway.pedestrian" priority="1" numLanes="1" speed="2.78" allow="pedestrian" oneway="1" width="2.00"/>
    <type id="highway.primary" priority="12" numLanes="2" speed="27.78" disallow="tram rail_urban rail rail_electric rail_fast ship" oneway="0"/>
    <type id="highway.primary_link" priority="7" numLanes="1" speed="22.22" disallow="tram rail_urban rail rail_electric rail_fast ship" oneway="0"/>
    <type id="highway.raceway" priority="15" numLanes="2" speed="83.33" allow="vip" oneway="0"/>
    <type id="highway.residential" priority="3" numLanes="1" speed="13.89" disallow="tram rail_urban rail rail_electric rail_fast ship" oneway="0"/>
    <type id="highway.secondary" priority="11" numLanes="1" speed="27.78" disallow="tram rail_urban rail rail_electric rail_fast ship" oneway="0"/>
    <type id="highway.secondary_link" priority="6" numLanes="1" speed="22.22" disallow="tram rail_urban rail rail_electric rail_fast ship" oneway="0"/>
    <type id="highway.service" priority="1" numLanes="1" speed="5.56" allow="pedestrian delivery bicycle" oneway="0"/>
    <type id="highway.stairs" priority="1" numLanes="1" speed="1.39" allow="pedestrian" oneway="1" width="2.00"/>
    <type id="highway.step" priority="1" numLanes="1" speed="1.39" allow="pedestrian" oneway="1" width="2.00"/>
    <type id="highway.steps" priority="1" numLanes="1" speed="1.39" allow="pedestrian" oneway="1" width="2.00"/>
    <type id="highway.tertiary" priority="10" numLanes="1" speed="22.22" disallow="tram rail_urban rail rail_electric rail_fast ship" oneway="0"/>
    <type id="highway.tertiary_link" priority="5" numLanes="1" speed="22.22" disallow="tram rail_urban rail rail_electric rail_fast ship" oneway="0"/>
    <type id="highway.track" priority="1" numLanes="1" speed="5.56" allow="pedestrian motorcycle moped bicycle" oneway="0"/>
    <type id="highway.trunk" priority="13" numLanes="2" speed="27.78" disallow="pedestrian bicycle tram rail_urban rail rail_electric rail_fast ship" oneway="0"/>
    <type id="highway.trunk_link" priority="8" numLanes="1" speed="22.22" disallow="pedestrian bicycle tram rail_urban rail rail_electric rail_fast ship" oneway="0"/>
    <type id="highway.unclassified" priority="4" numLanes="1" speed="13.89" disallow="tram rail_urban rail rail_electric rail_fast ship" oneway="0"/>
    <type id="highway.unsurfaced" priority="1" numLanes="1" speed="8.33" disallow="tram rail_urban rail rail_electric rail_fast ship" oneway="0"/>
    <type id="railway.highspeed" priority="21" numLanes="1" speed="69.44" allow="rail_fast" oneway="1"/>
    <type id="railway.light_rail" priority="19" numLanes="1" speed="27.78" allow="rail_urban" oneway="1"/>
    <type id="railway.preserved" priority="16" numLanes="1" speed="27.78" allow="rail" oneway="1"/>
    <type id="railway.rail" priority="20" numLanes="1" speed="44.44" allow="rail" oneway="1"/>
    <type id="railway.subway" priority="18" numLanes="1" speed="27.78" allow="rail_urban" oneway="1"/>
    <type id="railway.tram" priority="17" numLanes="1" speed="13.89" allow="tram" oneway="1"/>

    <edge id=":1201719372_0" function="internal">
        <lane id=":1201719372_0_0" index="0" disallow="tram rail_urban rail rail_electric rail_fast ship" speed="3.65" length="4.67" shape="459.44,309.25 459.60,310.68 459.25,311.50 458.38,311.71 457.00,311.31"/>
    </edge>
    <edge id=":1345078953_0" function="internal">
        <lane id=":1345078953_0_0" index="0" disallow="pedestrian bicycle tram rail_urban rail rail_electric rail_fast ship" speed="13.89" length="15.54" shape="274.14,131.61 277.81,128.74 280.04,126.36 282.36,124.14 286.32,121.77"/>
        <lane id=":1345078953_0_1" index="1" disallow="pedestrian bicycle tram rail_urban rail rail_electric rail_fast ship" speed="13.89" length="15.54" shape="275.89,134.29 279.46,131.49 281.61,129.15 283.86,126.97 287.71,124.66"/>
    </edge>
    <edge id=":1345078953_2" function="internal">
        <lane id=":1345078953_2_0" index="0" disallow="pedestrian bicycle tram rail_urban rail rail_electric rail_fast ship" speed="13.89" length="14.77" shape="278.65,136.90 280.72,132.68 282.04,129.55 283.94,127.04 287.71,124.66"/>
        <lane id=":1345078953_2_1" index="1" disallow="pedestrian bicycle tram rail_urban rail rail_electric rail_fast ship" speed="13.89" length="14.77" shape="281.41,138.51 283.19,134.77 284.25,131.95 285.82,129.67 289.09,127.54"/>
    </edge>
    <edge id=":1345078966_0" function="internal">
        <lane id=":1345078966_0_0" index="0" disallow="tram rail_urban rail rail_electric rail_fast ship" speed="3.65" length="4.67" shape="118.65,83.42 117.21,83.32 116.46,82.83 116.41,81.93 117.05,80.64"/>
    </edge>
    <edge id=":1345078970_0" function="internal">
        <lane id=":1345078970_0_0" index="0" disallow="pedestrian bicycle tram rail_urban rail rail_electric rail_fast ship" speed="13.89" length="8.17" shape="382.63,85.67 384.80,84.61 386.13,83.55 387.46,82.51 389.64,81.50"/>
        <lane id=":1345078970_0_1" index="1" disallow="pedestrian bicycle tram rail_urban rail rail_electric rail_fast ship" speed="13.89" length="8.17" shape="383.73,88.67 385.88,87.62 387.19,86.57 388.51,85.53 390.67,84.53"/>
    </edge>
    <edge id=":1345078974_0" function="internal">
        <lane id=":1345078974_0_0" index="0" disallow="pedestrian bicycle tram rail_urban rail rail_electric rail_fast ship" speed="13.89" length="8.14" shape="154.87,240.22 156.23,238.22 156.87,236.64 157.52,235.08 158.95,233.13"/>
        <lane id=":1345078974_0_1" index="1" disallow="pedestrian bicycle tram rail_urban rail rail_electric rail_fast ship" speed="13.89" length="8.14" shape="157.31,242.28 158.65,240.31 159.27,238.75 159.91,237.20 161.32,235.28"/>
        <lane id=":1345078974_0_2" index="2" disallow="pedestrian bicycle tram rail_urban rail rail_electric rail_fast ship" speed="13.89" length="8.14" shape="157.31,242.28 159.02,240.65 160.46,239.82 161.92,239.01 163.69,237.43"/>
    </edge>
    <edge id=":1345078981_0" function="internal">
        <lane id=":1345078981_0_0" index="0" disallow="tram rail_urban rail rail_electric rail_fast ship" speed="16.67" length="11.32" shape="192.24,94.19 190.52,91.27 189.88,88.85 189.30,86.53 187.72,83.93"/>
    </edge>
    <edge id=":1345078981_1" function="internal">
        <lane id=":1345078981_1_0" index="0" disallow="tram rail_urban rail rail_electric rail_fast ship" speed="15.28" length="10.82" shape="194.75,92.19 192.97,89.60 192.18,87.56 191.75,85.34 191.07,82.19"/>
        <lane id=":1345078981_1_1" index="1" disallow="tram rail_urban rail rail_electric rail_fast ship" speed="15.28" length="9.50" shape="197.25,90.20 195.71,87.92 195.07,86.11 194.74,84.15 194.17,81.38"/>
    </edge>
    <edge id=":1345078994_0" function="internal">
        <lane id=":1345078994_0_0" index="0" disallow="pedestrian bicycle tram rail_urban rail rail_electric rail_fast ship" speed="13.89" length="8.15" shape="167.24,223.98 168.68,222.02 169.38,220.46 170.09,218.91 171.59,217.00"/>
        <lane id=":1345078994_0_1" index="1" disallow="pedestrian bicycle tram rail_urban rail rail_electric rail_fast ship" speed="13.89" length="8.15" shape="169.61,226.13 171.03,224.19 171.72,222.64 172.42,221.11 173.89,219.22"/>
        <lane id=":1345078994_0_2" index="2" disallow="pedestrian bicycle tram rail_urban rail rail_electric rail_fast ship" speed="13.89" length="8.15" shape="171.98,228.28 173.38,226.37 174.05,224.83 174.74,223.31 176.19,221.45"/>
        <lane id=":1345078994_0_3" index="3" disallow="pedestrian bicycle tram rail_urban rail rail_electric rail_fast ship" speed="13.89" length="8.15" shape="171.98,228.28 173.74,226.72 175.20,225.94 176.68,225.19 178.49,223.67"/>
    </edge>
    <edge id=":1345079001_0" function="internal">
        <lane id=":1345079001_0_0" index="0" disallow="tram rail_urban rail rail_electric rail_fast ship" speed="6.07" length="15.19" shape="196.83,46.96 200.30,42.68 200.99,40.69 198.92,40.98 194.08,43.55"/>
        <lane id=":1345079001_0_1" index="1" disallow="tram rail_urban rail rail_electric rail_fast ship" speed="9.15" length="37.20" shape="199.16,49.15 207.65,38.68 209.37,33.80 204.29,34.51 192.44,40.80"/>
    </edge>
    <edge id=":1345079015_0" function="internal">
        <lane id=":1345079015_0_0" index="0" disallow="pedestrian bicycle tram rail_urban rail rail_electric rail_fast ship" speed="13.89" length="8.12" shape="295.54,85.29 293.58,86.53 292.45,87.71 291.34,88.92 289.43,90.24"/>
        <lane id=":1345079015_0_1" index="1" disallow="pedestrian bicycle tram rail_urban rail rail_electric rail_fast ship" speed="13.89" length="8.12" shape="294.14,82.41 292.14,83.67 290.98,84.86 289.85,86.09 287.90,87.44"/>
        <lane id=":1345079015_0_2" index="2" disallow="pedestrian bicycle tram rail_urban rail rail_electric rail_fast ship" speed="13.89" length="8.12" shape="292.74,79.54 290.70,80.81 289.52,82.02 288.35,83.26 286.36,84.63"/>
        <lane id=":1345079015_0_3" index="3" disallow="pedestrian bicycle tram rail_urban rail rail_electric rail_fast ship" speed="13.89" length="8.12" shape="292.74,79.54 290.45,80.38 288.75,80.61 287.07,80.88 284.83,81.82"/>
    </edge>
    <edge id=":1345086710_0" function="internal">
        <lane id=":1345086710_0_0" index="0" disallow="tram rail_urban rail rail_electric rail_fast ship" speed="16.67" length="8.19" shape="350.60,204.81 348.56,206.04 347.36,207.21 346.17,208.40 344.16,209.68"/>
        <lane id=":1345086710_0_1" index="1" disallow="tram rail_urban rail rail_electric rail_fast ship" speed="16.67" length="8.19" shape="349.25,201.91 347.19,203.14 345.98,204.32 344.78,205.52 342.74,206.81"/>
        <lane id=":1345086710_0_2" index="2" disallow="tram rail_urban rail rail_electric rail_fast ship" speed="16.67" length="8.19" shape="349.25,201.91 346.96,202.70 345.27,202.89 343.58,203.10 341.32,203.94"/>
    </edge>
    <edge id=":2708140686_0" function="internal">
        <lane id=":2708140686_0_0" index="0" disallow="tram rail_urban rail rail_electric rail_fast ship" speed="16.67" length="11.73" shape="260.65,185.94 258.76,183.03 257.80,180.82 256.85,178.60 254.97,175.67"/>
        <lane id=":2708140686_0_1" index="1" disallow="tram rail_urban rail rail_electric rail_fast ship" speed="16.67" length="11.73" shape="263.19,184.00 261.31,181.09 260.35,178.88 259.40,176.67 257.53,173.75"/>
        <lane id=":2708140686_0_2" index="2" disallow="tram rail_urban rail rail_electric rail_fast ship" speed="16.67" length="11.73" shape="265.74,182.07 263.86,179.16 262.90,176.95 261.96,174.74 260.09,171.83"/>
        <lane id=":2708140686_0_3" index="3" disallow="tram rail_urban rail rail_electric rail_fast ship" speed="16.67" length="11.73" shape="268.29,180.13 266.41,177.23 265.46,175.02 264.51,172.82 262.65,169.90"/>
        <lane id=":2708140686_0_4" index="4" disallow="tram rail_urban rail rail_electric rail_fast ship" speed="16.67" length="11.73" shape="270.83,178.19 268.96,175.29 268.01,173.09 267.07,170.89 265.21,167.98"/>
    </edge>
    <edge id=":2708140686_5" function="internal">
        <lane id=":2708140686_5_0" index="0" disallow="pedestrian bicycle tram rail_urban rail rail_electric rail_fast ship" speed="13.07" length="12.02" shape="270.83,178.19 269.06,175.27 268.58,172.90 268.77,170.32 269.00,166.73"/>
        <lane id=":2708140686_5_1" index="1" disallow="pedestrian bicycle tram rail_urban rail rail_electric rail_fast ship" speed="11.91" length="9.92" shape="273.38,176.25 271.97,173.83 271.69,171.87 271.96,169.72 272.20,166.76"/>
    </edge>
    <edge id=":4513714602_0" function="internal">
        <lane id=":4513714602_0_0" index="0" disallow="pedestrian bicycle tram rail_urban rail rail_electric rail_fast ship" speed="13.89" length="8.24" shape="200.07,187.60 201.92,186.04 203.42,185.25 204.93,184.46 206.77,182.90"/>
        <lane id=":4513714602_0_1" index="1" disallow="pedestrian bicycle tram rail_urban rail rail_electric rail_fast ship" speed="13.89" length="8.24" shape="202.37,189.83 204.22,188.26 205.73,187.48 207.23,186.68 209.07,185.12"/>
        <lane id=":4513714602_0_2" index="2" disallow="pedestrian bicycle tram rail_urban rail rail_electric rail_fast ship" speed="13.89" length="8.24" shape="204.67,192.05 206.52,190.49 208.03,189.70 209.53,188.91 211.38,187.34"/>
    </edge>
    <edge id=":4513714602_3" function="internal">
        <lane id=":4513714602_3_0" index="0" disallow="pedestrian bicycle tram rail_urban rail rail_electric rail_fast ship" speed="13.38" length="7.84" shape="206.96,194.28 208.61,192.67 209.91,191.72 211.39,191.09 213.61,190.41"/>
    </edge>
    <edge id=":4513714606_0" function="internal">
        <lane id=":4513714606_0_0" index="0" disallow="tram rail_urban rail rail_electric rail_fast ship" speed="16.67" length="6.33" shape="247.89,181.95 249.20,183.24 250.37,183.86 251.53,184.48 252.85,185.77"/>
        <lane id=":4513714606_0_1" index="1" disallow="tram rail_urban rail rail_electric rail_fast ship" speed="16.67" length="6.33" shape="245.35,183.90 246.67,185.20 247.83,185.81 249.00,186.43 250.31,187.73"/>
        <lane id=":4513714606_0_2" index="2" disallow="tram rail_urban rail rail_electric rail_fast ship" speed="16.67" length="6.33" shape="242.82,185.85 244.13,187.15 245.30,187.77 246.46,188.39 247.78,189.68"/>
    </edge>
    <edge id=":4513714606_3" function="internal">
        <lane id=":4513714606_3_0" index="0" disallow="pedestrian bicycle tram rail_urban rail rail_electric rail_fast ship" speed="8.49" length="5.36" shape="240.66,189.26 242.22,189.58 243.30,189.89 244.22,190.48 245.24,191.64"/>
    </edge>
    <edge id=":4724565982_0" function="internal">
        <lane id=":4724565982_0_0" index="0" disallow="tram rail_urban rail rail_electric rail_fast ship" speed="16.67" length="15.08" shape="312.37,265.46 321.74,277.31"/>
        <lane id=":4724565982_0_1" index="1" disallow="tram rail_urban rail rail_electric rail_fast ship" speed="16.67" length="15.08" shape="309.86,267.44 319.21,279.27"/>
        <lane id=":4724565982_0_2" index="2" disallow="tram rail_urban rail rail_electric rail_fast ship" speed="16.67" length="15.08" shape="307.35,269.42 316.69,281.24"/>
    </edge>
    <edge id=":4724565982_3" function="internal">
        <lane id=":4724565982_3_0" index="0" disallow="tram rail_urban rail rail_electric rail_fast ship" speed="15.28" length="15.81" shape="304.10,273.81 307.80,274.33 311.61,274.66 315.45,275.93 319.21,279.27"/>
        <lane id=":4724565982_3_1" index="1" disallow="tram rail_urban rail rail_electric rail_fast ship" speed="14.93" length="15.81" shape="304.10,273.81 307.47,274.72 310.52,275.86 313.50,277.83 316.69,281.24"/>
    </edge>
    <edge id=":5014445992_0" function="internal">
        <lane id=":5014445992_0_0" index="0" disallow="tram rail_urban rail rail_electric rail_fast ship" speed="13.89" length="8.23" shape="275.24,271.04 280.83,265.21"/>
        <lane id=":5014445992_0_1" index="1" disallow="tram rail_urban rail rail_electric rail_fast ship" speed="13.89" length="8.23" shape="277.39,273.41 283.09,267.47"/>
        <lane id=":5014445992_0_2" index="2" disallow="tram rail_urban rail rail_electric rail_fast ship" speed="13.89" length="8.23" shape="279.55,275.77 285.36,269.73"/>
    </edge>
    <edge id=":5014445992_3" function="internal">
        <lane id=":5014445992_3_0" index="0" disallow="tram rail_urban rail rail_electric rail_fast ship" speed="13.01" length="8.29" shape="279.55,275.77 281.45,274.33 283.02,273.76 284.77,273.55 287.22,273.19"/>
    </edge>
    <edge id=":5159435530_0" function="internal">
        <lane id=":5159435530_0_0" index="0" disallow="tram rail_urban rail rail_electric rail_fast ship" speed="16.67" length="9.28" shape="205.36,110.08 199.23,102.97"/>
        <lane id=":5159435530_0_1" index="1" disallow="tram rail_urban rail rail_electric rail_fast ship" speed="16.67" length="9.28" shape="207.80,108.01 201.74,100.98"/>
        <lane id=":5159435530_0_2" index="2" disallow="tram rail_urban rail rail_electric rail_fast ship" speed="16.67" length="9.28" shape="210.24,105.94 204.24,98.99"/>
    </edge>
    <edge id=":5159435530_3" function="internal">
        <lane id=":5159435530_3_0" index="0" disallow="pedestrian bicycle tram rail_urban rail rail_electric rail_fast ship" speed="13.70" length="10.28" shape="212.40,102.67 209.19,102.38 206.53,102.86 204.15,102.82 201.74,100.98"/>
        <lane id=":5159435530_3_1" index="1" disallow="pedestrian bicycle tram rail_urban rail rail_electric rail_fast ship" speed="12.39" length="10.28" shape="212.40,102.67 209.71,102.04 207.76,101.65 206.09,100.86 204.24,98.99"/>
    </edge>
    <edge id=":5159435535_0" function="internal">
        <lane id=":5159435535_0_0" index="0" disallow="pedestrian bicycle tram rail_urban rail rail_electric rail_fast ship" speed="13.89" length="6.47" shape="244.91,114.58 243.16,115.32 241.84,115.56 240.53,115.82 238.80,116.60"/>
        <lane id=":5159435535_0_1" index="1" disallow="pedestrian bicycle tram rail_urban rail rail_electric rail_fast ship" speed="13.89" length="6.47" shape="243.38,111.77 241.62,112.51 240.31,112.75 239.00,113.01 237.27,113.79"/>
        <lane id=":5159435535_0_2" index="2" disallow="pedestrian bicycle tram rail_urban rail rail_electric rail_fast ship" speed="13.89" length="6.47" shape="241.84,108.96 240.09,109.70 238.77,109.94 237.47,110.20 235.74,110.98"/>
    </edge>
    <edge id=":5159435535_3" function="internal">
        <lane id=":5159435535_3_0" index="0" disallow="pedestrian bicycle tram rail_urban rail rail_electric rail_fast ship" speed="13.89" length="6.10" shape="240.31,106.15 238.70,106.92 237.50,107.21 236.23,107.27 234.42,107.34"/>
    </edge>
    <edge id=":5159435536_0" function="internal">
        <lane id=":5159435536_0_0" index="0" disallow="pedestrian bicycle tram rail_urban rail rail_electric rail_fast ship" speed="13.89" length="14.39" shape="193.58,149.73 182.50,158.93"/>
        <lane id=":5159435536_0_1" index="1" disallow="pedestrian bicycle tram rail_urban rail rail_electric rail_fast ship" speed="13.89" length="14.39" shape="191.53,147.27 180.46,156.46"/>
        <lane id=":5159435536_0_2" index="2" disallow="pedestrian bicycle tram rail_urban rail rail_electric rail_fast ship" speed="13.89" length="14.39" shape="189.49,144.81 178.42,154.00"/>
    </edge>
    <edge id=":5159435536_3" function="internal">
        <lane id=":5159435536_3_0" index="0" disallow="pedestrian bicycle tram rail_urban rail rail_electric rail_fast ship" speed="13.89" length="15.23" shape="184.90,141.59 184.52,145.26 184.46,148.99 183.50,152.73 180.46,156.46"/>
        <lane id=":5159435536_3_1" index="1" disallow="pedestrian bicycle tram rail_urban rail rail_electric rail_fast ship" speed="13.89" length="15.23" shape="184.90,141.59 184.12,144.94 183.22,147.94 181.53,150.86 178.42,154.00"/>
    </edge>
    <edge id=":5159435540_0" function="internal">
        <lane id=":5159435540_0_0" index="0" disallow="tram rail_urban rail rail_electric rail_fast ship" speed="16.67" length="10.71" shape="189.42,109.21 191.70,111.40 193.52,112.63 195.34,113.85 197.62,116.04"/>
        <lane id=":5159435540_0_1" index="1" disallow="tram rail_urban rail rail_electric rail_fast ship" speed="16.67" length="10.71" shape="187.03,111.34 189.31,113.53 191.13,114.75 192.95,115.98 195.23,118.17"/>
        <lane id=":5159435540_0_2" index="2" disallow="tram rail_urban rail rail_electric rail_fast ship" speed="16.67" length="10.71" shape="184.64,113.47 186.91,115.65 188.74,116.88 190.56,118.10 192.83,120.29"/>
        <lane id=":5159435540_0_3" index="3" disallow="tram rail_urban rail rail_electric rail_fast ship" speed="16.67" length="10.71" shape="184.64,113.47 186.54,115.98 187.54,117.94 188.54,119.89 190.44,122.42"/>
    </edge>
    <edge id=":5159435540_4" function="internal">
        <lane id=":5159435540_4_0" index="0" disallow="pedestrian bicycle tram rail_urban rail rail_electric rail_fast ship" speed="11.64" length="11.19" shape="184.64,113.47 186.46,116.10 186.98,118.37 186.84,120.82 186.64,124.02"/>
    </edge>
    <edge id=":6143994316_0" function="internal">
        <lane id=":6143994316_0_0" index="0" disallow="pedestrian bicycle tram rail_urban rail rail_electric rail_fast ship" speed="13.89" length="8.21" shape="318.00,72.56 315.95,73.85 314.75,75.05 313.55,76.24 311.50,77.52"/>
        <lane id=":6143994316_0_1" index="1" disallow="pedestrian bicycle tram rail_urban rail rail_electric rail_fast ship" speed="13.89" length="8.21" shape="316.59,69.69 314.54,70.97 313.35,72.17 312.15,73.37 310.10,74.64"/>
        <lane id=":6143994316_0_2" index="2" disallow="pedestrian bicycle tram rail_urban rail rail_electric rail_fast ship" speed="13.89" length="8.21" shape="316.59,69.69 314.33,70.52 312.65,70.73 310.97,70.94 308.70,71.76"/>
    </edge>
    <edge id=":cluster_1201719374_5014445998_0" function="internal">
        <lane id=":cluster_1201719374_5014445998_0_0" index="0" disallow="tram rail_urban rail rail_electric rail_fast ship" speed="8.63" length="13.31" shape="369.64,206.61 366.52,203.40 363.61,201.42 360.92,200.67 358.44,201.16"/>
    </edge>
    <edge id=":cluster_1201719374_5014445998_1" function="internal">
        <lane id=":cluster_1201719374_5014445998_1_0" index="0" disallow="tram rail_urban rail rail_electric rail_fast ship" speed="5.22" length="6.74" shape="369.64,206.61 370.32,206.86 371.62,206.70 373.54,206.14 376.08,205.19"/>
    </edge>
    <edge id=":cluster_1201719374_5014445998_2" function="internal">
        <lane id=":cluster_1201719374_5014445998_2_0" index="0" disallow="tram rail_urban rail rail_electric rail_fast ship" speed="3.65" length="4.67" shape="369.64,206.61 369.47,205.18 369.83,204.36 370.70,204.15 372.08,204.55"/>
    </edge>
    <edge id=":cluster_1201719374_5014445998_3" function="internal">
        <lane id=":cluster_1201719374_5014445998_3_0" index="0" disallow="tram rail_urban rail rail_electric rail_fast ship" speed="6.41" length="11.13" shape="372.15,195.57 369.95,196.92 369.20,198.86 369.91,201.41 372.08,204.55"/>
    </edge>
    <edge id=":cluster_1201719374_5014445998_4" function="internal">
        <lane id=":cluster_1201719374_5014445998_4_0" index="0" disallow="tram rail_urban rail rail_electric rail_fast ship" speed="16.67" length="14.82" shape="372.15,195.57 368.01,197.05 365.20,198.13 362.43,199.32 358.44,201.16"/>
    </edge>
    <edge id=":cluster_1201719374_5014445998_5" function="internal">
        <lane id=":cluster_1201719374_5014445998_5_0" index="0" disallow="tram rail_urban rail rail_electric rail_fast ship" speed="6.55" length="9.92" shape="370.94,192.60 376.94,193.82 379.80,196.33"/>
    </edge>
    <edge id=":cluster_1201719374_5014445998_6" function="internal">
        <lane id=":cluster_1201719374_5014445998_6_0" index="0" disallow="tram rail_urban rail rail_electric rail_fast ship" speed="16.67" length="14.97" shape="370.94,192.60 366.76,194.11 363.92,195.19 361.12,196.40 357.09,198.26"/>
    </edge>
    <edge id=":cluster_1201719374_5014445998_11" function="internal">
        <lane id=":cluster_1201719374_5014445998_11_0" index="0" disallow="tram rail_urban rail rail_electric rail_fast ship" speed="6.55" length="9.92" shape="379.80,196.33 379.51,200.12 376.08,205.19"/>
    </edge>
    <edge id=":cluster_1201719374_5014445998_7" function="internal">
        <lane id=":cluster_1201719374_5014445998_7_0" index="0" disallow="tram rail_urban rail rail_electric rail_fast ship" speed="16.67" length="14.44" shape="361.53,207.78 374.87,202.22"/>
    </edge>
    <edge id=":cluster_1201719374_5014445998_8" function="internal">
        <lane id=":cluster_1201719374_5014445998_8_0" index="0" disallow="tram rail_urban rail rail_electric rail_fast ship" speed="6.57" length="10.01" shape="362.89,210.68 356.78,209.75 353.78,207.37"/>
    </edge>
    <edge id=":cluster_1201719374_5014445998_9" function="internal">
        <lane id=":cluster_1201719374_5014445998_9_0" index="0" disallow="tram rail_urban rail rail_electric rail_fast ship" speed="16.67" length="14.29" shape="362.89,210.68 376.08,205.19"/>
    </edge>
    <edge id=":cluster_1201719374_5014445998_10" function="internal">
        <lane id=":cluster_1201719374_5014445998_10_0" index="0" disallow="tram rail_urban rail rail_electric rail_fast ship" speed="8.21" length="11.55" shape="362.89,210.68 367.44,208.62 370.48,206.91 372.03,205.55 372.08,204.55"/>
    </edge>
    <edge id=":cluster_1201719374_5014445998_12" function="internal">
        <lane id=":cluster_1201719374_5014445998_12_0" index="0" disallow="tram rail_urban rail rail_electric rail_fast ship" speed="6.57" length="10.01" shape="353.78,207.37 353.88,203.54 357.09,198.26"/>
    </edge>
    <edge id=":cluster_1344194960_249392298_0" function="internal">
        <lane id=":cluster_1344194960_249392298_0_0" index="0" disallow="tram rail_urban rail rail_electric rail_fast ship" speed="8.23" length="32.95" shape="169.04,61.81 170.40,71.89 168.03,77.73 161.93,79.35 152.11,76.73"/>
    </edge>
    <edge id=":cluster_1344194960_249392298_1" function="internal">
        <lane id=":cluster_1344194960_249392298_1_0" index="0" disallow="tram rail_urban rail rail_electric rail_fast ship" speed="10.88" length="23.47" shape="169.04,61.81 166.11,60.27 161.52,60.62 155.27,62.85 147.35,66.97"/>
    </edge>
    <edge id=":cluster_1344194960_249392298_2" function="internal">
        <lane id=":cluster_1344194960_249392298_2_0" index="0" disallow="tram rail_urban rail rail_electric rail_fast ship" speed="8.28" length="17.43" shape="166.49,60.00 160.83,63.80 157.34,67.15 156.04,70.05 156.91,72.50"/>
    </edge>
    <edge id=":cluster_1344194960_249392298_3" function="internal">
        <lane id=":cluster_1344194960_249392298_3_0" index="0" disallow="tram rail_urban rail rail_electric rail_fast ship" speed="13.89" length="20.01" shape="164.85,57.25 147.35,66.97"/>
    </edge>
    <edge id=":cluster_1344194960_249392298_4" function="internal">
        <lane id=":cluster_1344194960_249392298_4_0" index="0" disallow="tram rail_urban rail rail_electric rail_fast ship" speed="13.89" length="19.97" shape="145.75,64.19 163.21,54.51"/>
    </edge>
    <edge id=":cluster_1344194960_249392298_5" function="internal">
        <lane id=":cluster_1344194960_249392298_5_0" index="0" disallow="tram rail_urban rail rail_electric rail_fast ship" speed="8.49" length="13.66" shape="145.75,64.19 147.39,65.51 150.21,68.93 152.98,72.60 154.51,74.61"/>
        <lane id=":cluster_1344194960_249392298_5_1" index="1" disallow="tram rail_urban rail rail_electric rail_fast ship" speed="8.60" length="14.05" shape="145.75,64.19 152.11,76.73"/>
    </edge>
    <edge id=":cluster_1345078973_1345078978_0" function="internal">
        <lane id=":cluster_1345078973_1345078978_0_0" index="0" disallow="tram rail_urban rail rail_electric rail_fast ship" speed="16.67" length="17.30" shape="245.81,163.42 235.13,149.99"/>