<?xml version="1.0" encoding="UTF-8"?>

<!-- generated on 2023-07-17 16:28:21 by Eclipse SUMO netconvert Version 1.17.0
<configuration xmlns:xsi="http://www.w3.org/2001/XMLSchema-instance" xsi:noNamespaceSchemaLocation="http://sumo.dlr.de/xsd/netconvertConfiguration.xsd">

    <input>
        <sumo-net-file value="osm.net.xml.gz"/>
    </input>

    <output>
        <output-file value="osm.net.xml"/>
        <output.street-names value="true"/>
    </output>

    <processing>
        <geometry.min-radius.fix.railways value="false"/>
        <geometry.max-grade.fix value="false"/>
        <offset.disable-normalization value="true"/>
        <lefthand value="1"/>
    </processing>

    <junctions>
        <no-turnarounds value="true"/>
        <junctions.corner-detail value="5"/>
        <junctions.limit-turn-speed value="5.50"/>
        <rectangular-lane-cut value="0"/>
    </junctions>

    <pedestrian>
        <walkingareas value="0"/>
    </pedestrian>

</configuration>
-->

<net version="1.16" junctionCornerDetail="5" lefthand="true" limitTurnSpeed="5.50" xmlns:xsi="http://www.w3.org/2001/XMLSchema-instance" xsi:noNamespaceSchemaLocation="http://sumo.dlr.de/xsd/net_file.xsd">

    <location netOffset="-370925.54,-142209.50" convBoundary="0.00,0.00,448.18,348.71" origBoundary="103.839829,1.286347,103.843857,1.289502" projParameter="+proj=utm +zone=48 +ellps=WGS84 +datum=WGS84 +units=m +no_defs"/>

    <type id="highway.bridleway" priority="1" numLanes="1" speed="2.78" allow="pedestrian" oneway="1" width="2.00"/>
    <type id="highway.bus_guideway" priority="1" numLanes="1" speed="27.78" allow="bus" oneway="1"/>
    <type id="highway.cycleway" priority="1" numLanes="1" speed="5.56" allow="bicycle" oneway="0" width="1.00"/>
    <type id="highway.footway" priority="1" numLanes="1" speed="2.78" allow="pedestrian" oneway="1" width="2.00"/>
    <type id="highway.ford" priority="1" numLanes="1" speed="2.78" allow="army" oneway="0"/>
    <type id="highway.living_street" priority="2" numLanes="1" speed="2.78" disallow="tram rail_urban rail rail_electric rail_fast ship" oneway="0"/>
    <type id="highway.motorway" priority="14" numLanes="2" speed="39.44" allow="private emergency authority army vip passenger hov taxi bus coach delivery truck trailer motorcycle evehicle custom1 custom2" oneway="1"/>
    <type id="highway.motorway_link" priority="9" numLanes="1" speed="22.22" allow="private emergency authority army vip passenger hov taxi bus coach delivery truck trailer motorcycle evehicle custom1 custom2" oneway="1"/>
    <type id="highway.path" priority="1" numLanes="1" speed="5.56" allow="pedestrian bicycle" oneway="0" width="2.00"/>
    <type id="highway.pedestrian" priority="1" numLanes="1" speed="2.78" allow="pedestrian" oneway="1" width="2.00"/>
    <type id="highway.primary" priority="12" numLanes="2" speed="27.78" disallow="tram rail_urban rail rail_electric rail_fast ship" oneway="0"/>
    <type id="highway.primary_link" priority="7" numLanes="1" speed="22.22" disallow="tram rail_urban rail rail_electric rail_fast ship" oneway="0"/>
    <type id="highway.raceway" priority="15" numLanes="2" speed="83.33" allow="vip" oneway="0"/>
    <type id="highway.residential" priority="3" numLanes="1" speed="13.89" disallow="tram rail_urban rail rail_electric rail_fast ship" oneway="0"/>
    <type id="highway.secondary" priority="11" numLanes="1" speed="27.78" disallow="tram rail_urban rail rail_electric rail_fast ship" oneway="0"/>
    <type id="highway.secondary_link" priority="6" numLanes="1" speed="22.22" disallow="tram rail_urban rail rail_electric rail_fast ship" oneway="0"/>
    <type id="highway.service" priority="1" numLanes="1" speed="5.56" allow="pedestrian delivery bicycle" oneway="0"/>
    <type id="highway.stairs" priority="1" numLanes="1" speed="1.39" allow="pedestrian" oneway="1" width="2.00"/>
    <type id="highway.step" priority="1" numLanes="1" speed="1.39" allow="pedestrian" oneway="1" width="2.00"/>
    <type id="highway.steps" priority="1" numLanes="1" speed="1.39" allow="pedestrian" oneway="1" width="2.00"/>
    <type id="highway.tertiary" priority="10" numLanes="1" speed="22.22" disallow="tram rail_urban rail rail_electric rail_fast ship" oneway="0"/>
    <type id="highway.tertiary_link" priority="5" numLanes="1" speed="22.22" disallow="tram rail_urban rail rail_electric rail_fast ship" oneway="0"/>
    <type id="highway.track" priority="1" numLanes="1" speed="5.56" allow="pedestrian motorcycle moped bicycle" oneway="0"/>
    <type id="highway.trunk" priority="13" numLanes="2" speed="27.78" disallow="pedestrian bicycle tram rail_urban rail rail_electric rail_fast ship" oneway="0"/>
    <type id="highway.trunk_link" priority="8" numLanes="1" speed="22.22" disallow="pedestrian bicycle tram rail_urban rail rail_electric rail_fast ship" oneway="0"/>
    <type id="highway.unclassified" priority="4" numLanes="1" speed="13.89" disallow="tram rail_urban rail rail_electric rail_fast ship" oneway="0"/>
    <type id="highway.unsurfaced" priority="1" numLanes="1" speed="8.33" disallow="tram rail_urban rail rail_electric rail_fast ship" oneway="0"/>
    <type id="railway.highspeed" priority="21" numLanes="1" speed="69.44" allow="rail_fast" oneway="1"/>
    <type id="railway.light_rail" priority="19" numLanes="1" speed="27.78" allow="rail_urban" oneway="1"/>
    <type id="railway.preserved" priority="16" numLanes="1" speed="27.78" allow="rail" oneway="1"/>
    <type id="railway.rail" priority="20" numLanes="1" speed="44.44" allow="rail" oneway="1"/>
    <type id="railway.subway" priority="18" numLanes="1" speed="27.78" allow="rail_urban" oneway="1"/>
    <type id="railway.tram" priority="17" numLanes="1" speed="13.89" allow="tram" oneway="1"/>

    <edge id=":1363293957_0" function="internal">
        <lane id=":1363293957_0_0" index="0" disallow="tram rail_urban rail rail_electric rail_fast ship" speed="8.89" length="7.84" shape="291.06,119.37 290.76,121.03 290.08,122.62 289.03,124.13 287.59,125.56"/>
        <lane id=":1363293957_0_1" index="1" disallow="tram rail_urban rail rail_electric rail_fast ship" speed="9.21" length="7.84" shape="294.25,119.58 293.95,121.80 293.36,123.71 292.47,125.31 291.28,126.61"/>
        <lane id=":1363293957_0_2" index="2" disallow="tram rail_urban rail rail_electric rail_fast ship" speed="13.89" length="7.84" shape="297.45,119.78 297.19,122.24 296.74,123.88 295.96,125.43 294.72,127.60"/>
    </edge>
    <edge id=":1363293957_3" function="internal">
        <lane id=":1363293957_3_0" index="0" allow="private emergency authority army vip passenger hov taxi bus coach delivery truck trailer motorcycle evehicle custom1 custom2" speed="12.50" length="8.27" shape="300.64,119.99 300.49,122.43 300.24,124.12 299.62,125.69 298.38,127.78"/>
    </edge>
    <edge id=":1363293977_0" function="internal">
        <lane id=":1363293977_0_0" index="0" disallow="tram rail_urban rail rail_electric rail_fast ship" speed="13.89" length="8.15" shape="236.82,154.80 234.65,155.66 233.02,155.88 231.38,156.08 229.16,156.86"/>
        <lane id=":1363293977_0_1" index="1" disallow="tram rail_urban rail rail_electric rail_fast ship" speed="13.89" length="8.15" shape="238.31,157.63 236.11,158.51 234.46,158.74 232.79,158.95 230.55,159.75"/>
        <lane id=":1363293977_0_2" index="2" disallow="tram rail_urban rail rail_electric rail_fast ship" speed="13.89" length="8.15" shape="239.81,160.46 237.57,161.36 235.90,161.60 234.21,161.82 231.93,162.63"/>
        <lane id=":1363293977_0_3" index="3" disallow="tram rail_urban rail rail_electric rail_fast ship" speed="13.89" length="8.15" shape="239.81,160.46 237.78,161.81 236.59,163.04 235.38,164.25 233.31,165.52"/>
    </edge>
    <edge id=":1363294008_0" function="internal">
        <lane id=":1363294008_0_0" index="0" disallow="tram rail_urban rail rail_electric rail_fast ship" speed="13.89" length="6.98" shape="249.76,64.81 247.70,64.51 246.26,64.33 244.91,63.91 243.12,62.94"/>
    </edge>
    <edge id=":1363294008_1" function="internal">
        <lane id=":1363294008_1_0" index="0" disallow="tram rail_urban rail rail_electric rail_fast ship" speed="13.89" length="7.49" shape="241.43,65.66 243.41,66.61 244.93,66.95 246.43,67.29 248.40,68.27"/>
    </edge>
    <edge id=":1790098230_0" function="internal">
        <lane id=":1790098230_0_0" index="0" disallow="tram rail_urban rail rail_electric rail_fast ship" speed="16.67" length="2.07" shape="104.02,164.95 106.06,164.75"/>
        <lane id=":1790098230_0_1" index="1" disallow="tram rail_urban rail rail_electric rail_fast ship" speed="16.67" length="2.07" shape="106.20,162.61 108.28,162.44"/>
    </edge>
    <edge id=":1790098230_2" function="internal">
        <lane id=":1790098230_2_0" index="0" disallow="pedestrian tram rail_urban rail rail_electric rail_fast ship" speed="6.52" length="5.63" shape="108.39,160.28 109.57,161.15 110.83,161.63 112.18,161.72 113.61,161.43"/>
    </edge>
    <edge id=":1790098233_0" function="internal">
        <lane id=":1790098233_0_0" index="0" disallow="tram rail_urban rail rail_electric rail_fast ship" speed="16.67" length="3.78" shape="106.21,164.89 106.74,165.77 106.75,166.59 106.75,167.42 107.25,168.33"/>
        <lane id=":1790098233_0_1" index="1" disallow="tram rail_urban rail rail_electric rail_fast ship" speed="16.67" length="3.78" shape="108.42,162.58 108.98,163.48 109.01,164.32 109.03,165.18 109.56,166.11"/>
        <lane id=":1790098233_0_2" index="2" disallow="tram rail_urban rail rail_electric rail_fast ship" speed="16.67" length="3.78" shape="108.42,162.58 109.34,163.14 110.17,163.22 110.98,163.31 111.87,163.90"/>
    </edge>
    <edge id=":237296580_0" function="internal">
        <lane id=":237296580_0_0" index="0" disallow="tram rail_urban rail rail_electric rail_fast ship" speed="11.59" length="9.05" shape="271.74,49.21 271.35,51.85 270.84,53.66 269.87,55.23 268.08,57.18"/>
    </edge>
    <edge id=":237296580_1" function="internal">
        <lane id=":237296580_1_0" index="0" disallow="tram rail_urban rail rail_electric rail_fast ship" speed="13.89" length="9.20" shape="271.74,49.21 271.69,52.08 272.32,54.01 273.26,55.92 274.14,58.77"/>
        <lane id=":237296580_1_1" index="1" disallow="tram rail_urban rail rail_electric rail_fast ship" speed="13.89" length="9.20" shape="274.91,49.65 274.90,52.36 275.56,54.16 276.51,55.95 277.37,58.63"/>
        <lane id=":237296580_1_2" index="2" disallow="tram rail_urban rail rail_electric rail_fast ship" speed="13.89" length="9.20" shape="278.08,50.09 278.10,52.63 278.80,54.31 279.77,55.97 280.61,58.48"/>
        <lane id=":237296580_1_3" index="3" disallow="tram rail_urban rail rail_electric rail_fast ship" speed="13.89" length="9.20" shape="281.25,50.54 281.30,52.91 282.03,54.45 283.02,55.99 283.84,58.34"/>
    </edge>
    <edge id=":237296663_0" function="internal">
        <lane id=":237296663_0_0" index="0" disallow="tram rail_urban rail rail_electric rail_fast ship" speed="9.36" length="8.25" shape="274.66,78.65 276.67,79.37 278.06,79.99 279.14,80.97 280.22,82.73"/>
        <lane id=":237296663_0_1" index="1" disallow="tram rail_urban rail rail_electric rail_fast ship" speed="10.61" length="8.25" shape="274.66,78.65 277.42,79.16 279.65,79.07 281.47,79.42 283.06,81.26"/>
    </edge>
    <edge id=":237296663_2" function="internal">
        <lane id=":237296663_2_0" index="0" disallow="tram rail_urban rail rail_electric rail_fast ship" speed="13.89" length="6.97" shape="277.82,75.79 280.22,82.73"/>
        <lane id=":237296663_2_1" index="1" disallow="tram rail_urban rail rail_electric rail_fast ship" speed="13.89" length="6.97" shape="280.77,74.54 283.06,81.26"/>
        <lane id=":237296663_2_2" index="2" disallow="tram rail_urban rail rail_electric rail_fast ship" speed="13.89" length="6.97" shape="283.72,73.30 285.90,79.78"/>
        <lane id=":237296663_2_3" index="3" disallow="tram rail_urban rail rail_electric rail_fast ship" speed="13.89" length="6.97" shape="286.67,72.06 288.74,78.31"/>
    </edge>
    <edge id=":237296721_0" function="internal">
        <lane id=":237296721_0_0" index="0" disallow="tram rail_urban rail rail_electric rail_fast ship" speed="13.89" length="15.06" shape="189.18,174.19 184.64,175.67 181.06,176.25 177.84,176.33 174.40,176.34"/>
    </edge>
    <edge id=":237296721_1" function="internal">
        <lane id=":237296721_1_0" index="0" disallow="tram rail_urban rail rail_electric rail_fast ship" speed="13.89" length="14.08" shape="189.18,174.19 185.06,175.88 182.32,177.24 179.76,178.91 176.15,181.52"/>
        <lane id=":237296721_1_1" index="1" disallow="tram rail_urban rail rail_electric rail_fast ship" speed="13.89" length="14.08" shape="190.36,177.16 186.42,178.79 183.81,180.10 181.35,181.70 177.90,184.21"/>
        <lane id=":237296721_1_2" index="2" disallow="tram rail_urban rail rail_electric rail_fast ship" speed="13.89" length="14.08" shape="191.54,180.14 187.78,181.69 185.29,182.95 182.94,184.49 179.65,186.89"/>
        <lane id=":237296721_1_3" index="3" disallow="tram rail_urban rail rail_electric rail_fast ship" speed="13.89" length="14.08" shape="192.73,183.11 189.14,184.60 186.77,185.81 184.54,187.29 181.40,189.58"/>
        <lane id=":237296721_1_4" index="4" disallow="tram rail_urban rail rail_electric rail_fast ship" speed="13.89" length="14.08" shape="192.73,183.11 189.39,185.02 187.63,187.14 186.03,189.53 183.14,192.26"/>
        <lane id=":237296721_1_5" index="5" disallow="tram rail_urban rail rail_electric rail_fast ship" speed="13.89" length="14.08" shape="192.73,183.11 189.53,185.48 188.49,188.45 187.61,191.70 184.89,194.95"/>
    </edge>
    <edge id=":237296742_0" function="internal">
        <lane id=":237296742_0_0" index="0" allow="private emergency authority army vip passenger hov taxi bus coach delivery truck trailer motorcycle evehicle custom1 custom2" speed="22.22" length="7.96" shape="77.93,131.80 79.47,133.58 79.92,135.31 80.33,137.08 81.78,138.99"/>
        <lane id=":237296742_0_1" index="1" allow="private emergency authority army vip passenger hov taxi bus coach delivery truck trailer motorcycle evehicle custom1 custom2" speed="22.22" length="7.96" shape="77.93,131.80 83.87,136.56"/>
        <lane id=":237296742_0_2" index="2" allow="private emergency authority army vip passenger hov taxi bus coach delivery truck trailer motorcycle evehicle custom1 custom2" speed="22.22" length="7.96" shape="79.85,129.24 85.95,134.13"/>
        <lane id=":237296742_0_3" index="3" allow="private emergency authority army vip passenger hov taxi bus coach delivery truck trailer motorcycle evehicle custom1 custom2" speed="22.22" length="7.96" shape="81.76,126.68 88.04,131.70"/>
    </edge>
    <edge id=":243208161_0" function="internal">
        <lane id=":243208161_0_0" index="0" allow="private emergency authority army vip passenger hov taxi bus coach delivery truck trailer motorcycle evehicle custom1 custom2" speed="11.11" length="0.10" shape="177.75,226.83 177.75,226.83"/>
    </edge>
    <edge id=":243208164_0" function="internal">
        <lane id=":243208164_0_0" index="0" allow="private emergency authority army vip passenger hov taxi bus coach delivery truck trailer motorcycle evehicle custom1 custom2" speed="18.05" length="5.02" shape="104.09,158.53 105.22,159.51 106.02,160.13 106.86,160.71 108.09,161.56"/>
    </edge>
    <edge id=":243208164_1" function="internal">
        <lane id=":243208164_1_0" index="0" allow="private emergency authority army vip passenger hov taxi bus coach delivery truck trailer motorcycle evehicle custom1 custom2" speed="22.22" length="4.30" shape="106.23,156.15 107.25,157.10 107.92,157.78 108.56,158.50 109.49,159.55"/>
        <lane id=":243208164_1_1" index="1" allow="private emergency authority army vip passenger hov taxi bus coach delivery truck trailer motorcycle evehicle custom1 custom2" speed="22.22" length="4.30" shape="108.36,153.77 109.31,154.63 109.92,155.25 110.51,155.90 111.36,156.85"/>
        <lane id=":243208164_1_2" index="2" allow="private emergency authority army vip passenger hov taxi bus coach delivery truck trailer motorcycle evehicle custom1 custom2" speed="22.22" length="4.30" shape="110.50,151.39 111.36,152.16 111.92,152.72 112.46,153.29 113.24,154.15"/>
    </edge>
    <edge id=":243208166_0" function="internal">
        <lane id=":243208166_0_0" index="0" allow="private emergency authority army vip passenger hov taxi bus coach delivery truck trailer motorcycle evehicle custom1 custom2" speed="39.44" length="8.19" shape="227.81,277.10 226.57,275.02 226.05,273.40 225.51,271.79 224.25,269.73"/>
        <lane id=":243208166_0_1" index="1" allow="private emergency authority army vip passenger hov taxi bus coach delivery truck trailer motorcycle evehicle custom1 custom2" speed="39.44" length="8.19" shape="225.24,279.01 224.01,276.94 223.49,275.33 222.96,273.73 221.71,271.68"/>
        <lane id=":243208166_0_2" index="2" allow="private emergency authority army vip passenger hov taxi bus coach delivery truck trailer motorcycle evehicle custom1 custom2" speed="39.44" length="8.19" shape="222.68,280.92 221.45,278.86 220.94,277.26 220.42,275.66 219.17,273.63"/>
    </edge>
    <edge id=":243208167_0" function="internal">
        <lane id=":243208167_0_0" index="0" allow="private emergency authority army vip passenger hov taxi bus coach delivery truck trailer motorcycle evehicle custom1 custom2" speed="13.89" length="0.10" shape="238.57,186.95 238.50,187.01"/>
        <lane id=":243208167_0_1" index="1" allow="private emergency authority army vip passenger hov taxi bus coach delivery truck trailer motorcycle evehicle custom1 custom2" speed="13.89" length="0.10" shape="236.41,184.59 236.48,184.53"/>
    </edge>
    <edge id=":243208171_0" function="internal">
        <lane id=":243208171_0_0" index="0" allow="private emergency authority army vip passenger hov taxi bus coach delivery truck trailer motorcycle evehicle custom1 custom2" speed="15.28" length="30.24" shape="352.37,153.08 359.72,151.04 367.23,149.14 374.56,146.85 381.40,143.67"/>
        <lane id=":243208171_0_1" index="1" allow="private emergency authority army vip passenger hov taxi bus coach delivery truck trailer motorcycle evehicle custom1 custom2" speed="15.28" length="30.24" shape="351.41,150.03 358.65,148.04 365.93,146.23 373.05,144.04 379.78,140.91"/>
    </edge>
    <edge id=":243208171_2" function="internal">
        <lane id=":243208171_2_0" index="0" disallow="tram rail_urban rail rail_electric rail_fast ship" speed="16.67" length="30.02" shape="350.58,145.95 355.99,146.34 363.77,145.74 372.26,143.99 379.78,140.91"/>
    </edge>
    <edge id=":243213817_0" function="internal">
        <lane id=":243213817_0_0" index="0" disallow="tram rail_urban rail rail_electric rail_fast ship" speed="15.28" length="24.08" shape="121.32,228.30 119.73,232.22 117.57,236.95 114.08,242.13 108.49,247.40"/>
        <lane id=":243213817_0_1" index="1" disallow="tram rail_urban rail rail_electric rail_fast ship" speed="15.28" length="24.08" shape="121.32,228.30 120.10,232.57 118.72,238.09 115.91,244.13 110.42,249.95"/>
    </edge>
    <edge id=":243213817_2" function="internal">
        <lane id=":243213817_2_0" index="0" disallow="tram rail_urban rail rail_electric rail_fast ship" speed="16.67" length="23.62" shape="125.04,231.22 120.18,236.10 117.05,239.65 113.78,243.04 108.49,247.40"/>
        <lane id=":243213817_2_1" index="1" disallow="tram rail_urban rail rail_electric rail_fast ship" speed="16.67" length="23.62" shape="127.20,233.59 122.27,238.52 119.10,242.12 115.78,245.54 110.42,249.95"/>
        <lane id=":243213817_2_2" index="2" disallow="tram rail_urban rail rail_electric rail_fast ship" speed="16.67" length="23.62" shape="129.35,235.95 124.37,240.95 121.15,244.58 117.78,248.04 112.35,252.51"/>
        <lane id=":243213817_2_3" index="3" disallow="tram rail_urban rail rail_electric rail_fast ship" speed="16.67" length="23.62" shape="131.51,238.32 126.46,243.37 123.19,247.04 119.78,250.54 114.28,255.06"/>
    </edge>
    <edge id=":249692307_0" function="internal">
        <lane id=":249692307_0_0" index="0" disallow="tram rail_urban rail rail_electric rail_fast ship" speed="14.11" length="23.80" shape="123.13,184.87 126.50,189.40 128.57,194.61 129.33,200.51 128.80,207.08"/>
    </edge>
    <edge id=":249692307_1" function="internal">
        <lane id=":249692307_1_0" index="0" disallow="tram rail_urban rail rail_electric rail_fast ship" speed="16.67" length="22.77" shape="123.13,184.87 127.16,189.80 129.11,193.76 130.62,198.05 133.31,203.96"/>
        <lane id=":249692307_1_1" index="1" disallow="tram rail_urban rail rail_electric rail_fast ship" speed="16.67" length="22.77" shape="125.43,182.65 129.66,187.79 131.74,191.91 133.34,196.36 136.17,202.52"/>
        <lane id=":249692307_1_2" index="2" disallow="tram rail_urban rail rail_electric rail_fast ship" speed="16.67" length="22.77" shape="127.74,180.44 132.16,185.78 134.36,190.05 136.07,194.67 139.02,201.08"/>
    </edge>
    <edge id=":249692309_0" function="internal">
        <lane id=":249692309_0_0" index="0" disallow="tram rail_urban rail rail_electric rail_fast ship" speed="16.67" length="7.64" shape="80.56,141.32 82.11,142.79 82.87,144.10 83.58,145.46 84.99,147.11"/>
        <lane id=":249692309_0_1" index="1" disallow="tram rail_urban rail rail_electric rail_fast ship" speed="16.67" length="7.64" shape="82.48,138.76 84.11,140.29 84.93,141.64 85.70,143.06 87.18,144.78"/>
        <lane id=":249692309_0_2" index="2" disallow="tram rail_urban rail rail_electric rail_fast ship" speed="16.67" length="7.64" shape="82.48,138.76 84.47,139.94 86.03,140.47 87.53,141.07 89.36,142.44"/>
    </edge>
    <edge id=":249692339_0" function="internal">
        <lane id=":249692339_0_0" index="0" disallow="tram rail_urban rail rail_electric rail_fast ship" speed="15.28" length="15.58" shape="142.89,168.89 140.09,166.83 137.41,164.84 134.63,162.25 131.53,158.37"/>
    </edge>
    <edge id=":249692339_1" function="internal">
        <lane id=":249692339_1_0" index="0" disallow="tram rail_urban rail rail_electric rail_fast ship" speed="16.67" length="15.55" shape="139.41,171.92 131.53,158.37"/>
        <lane id=":249692339_1_1" index="1" disallow="tram rail_urban rail rail_electric rail_fast ship" speed="16.67" length="15.55" shape="136.66,173.55 128.91,160.21"/>
    </edge>
    <edge id=":249692999_0" function="internal">
        <lane id=":249692999_0_0" index="0" disallow="tram rail_urban rail rail_electric rail_fast ship" speed="3.65" length="4.67" shape="277.83,295.74 279.23,296.07 280.09,295.82 280.40,294.98 280.17,293.56"/>
    </edge>
    <edge id=":249693001_0" function="internal">
        <lane id=":249693001_0_0" index="0" disallow="tram rail_urban rail rail_electric rail_fast ship" speed="6.74" length="11.02" shape="221.92,230.59 220.17,227.86 219.76,225.42 220.69,223.26 222.97,221.38"/>
        <lane id=":249693001_0_1" index="1" disallow="tram rail_urban rail rail_electric rail_fast ship" speed="7.52" length="14.05" shape="221.92,230.59 219.28,226.76 218.31,223.49 218.99,220.78 221.35,218.63"/>
    </edge>
    <edge id=":249693001_2" function="internal">
        <lane id=":249693001_2_0" index="0" disallow="tram rail_urban rail rail_electric rail_fast ship" speed="6.90" length="9.06" shape="210.49,228.90 212.42,228.17 214.38,228.34 216.36,229.39 218.37,231.34"/>
    </edge>
    <edge id=":249693001_3" function="internal">
        <lane id=":249693001_3_0" index="0" disallow="tram rail_urban rail rail_electric rail_fast ship" speed="16.67" length="14.64" shape="210.49,228.90 222.97,221.38"/>
        <lane id=":249693001_3_1" index="1" disallow="tram rail_urban rail rail_electric rail_fast ship" speed="16.67" length="14.64" shape="208.82,226.16 221.35,218.63"/>
        <lane id=":249693001_3_2" index="2" disallow="tram rail_urban rail rail_electric rail_fast ship" speed="16.67" length="14.64" shape="207.16,223.43 219.72,215.87"/>
        <lane id=":249693001_3_3" index="3" disallow="tram rail_urban rail rail_electric rail_fast ship" speed="16.67" length="14.64" shape="205.49,220.70 218.10,213.11"/>
    </edge>
    <edge id=":365499245_0" function="internal">
        <lane id=":365499245_0_0" index="0" disallow="tram rail_urban rail rail_electric rail_fast ship" speed="3.65" length="4.67" shape="125.34,23.77 124.23,24.69 123.91,25.52 124.39,26.28 125.66,26.95"/>
    </edge>
    <edge id=":3756989284_0" function="internal">
        <lane id=":3756989284_0_0" index="0" disallow="tram rail_urban rail rail_electric rail_fast ship" speed="6.33" length="9.04" shape="304.90,192.49 304.55,190.00 305.11,188.07 306.57,186.69 308.94,185.85"/>
        <lane id=":3756989284_0_1" index="1" disallow="tram rail_urban rail rail_electric rail_fast ship" speed="7.16" length="11.89" shape="304.90,192.49 304.18,188.65 304.51,185.74 305.89,183.76 308.32,182.71"/>
    </edge>
    <edge id=":3756989284_2" function="internal">
        <lane id=":3756989284_2_0" index="0" disallow="tram rail_urban rail rail_electric rail_fast ship" speed="16.67" length="11.41" shape="297.93,188.20 308.94,185.85"/>
        <lane id=":3756989284_2_1" index="1" disallow="tram rail_urban rail rail_electric rail_fast ship" speed="16.67" length="11.41" shape="297.21,185.08 308.32,182.71"/>
        <lane id=":3756989284_2_2" index="2" disallow="tram rail_urban rail rail_electric rail_fast ship" speed="16.67" length="11.41" shape="296.49,181.96 307.70,179.57"/>
        <lane id=":3756989284_2_3" index="3" disallow="tram rail_urban rail rail_electric rail_fast ship" speed="16.67" length="11.41" shape="295.78,178.84 307.08,176.43"/>
    </edge>
    <edge id=":4600694846_0" function="internal">
        <lane id=":4600694846_0_0" index="0" disallow="tram rail_urban rail rail_electric rail_fast ship" speed="6.80" length="8.14" shape="407.97,144.88 409.88,144.14 411.74,144.15 413.54,144.88 415.30,146.35"/>
    </edge>
    <edge id=":4600694846_1" function="internal">
        <lane id=":4600694846_1_0" index="0" disallow="tram rail_urban rail rail_electric rail_fast ship" speed="16.67" length="9.31" shape="407.97,144.88 416.12,139.93"/>
        <lane id=":4600694846_1_1" index="1" disallow="tram rail_urban rail rail_electric rail_fast ship" speed="16.67" length="9.31" shape="406.39,142.09 414.41,137.23"/>
        <lane id=":4600694846_1_2" index="2" disallow="tram rail_urban rail rail_electric rail_fast ship" speed="16.67" length="9.31" shape="404.81,139.31 412.71,134.52"/>
        <lane id=":4600694846_1_3" index="3" disallow="tram rail_urban rail rail_electric rail_fast ship" speed="16.67" length="9.31" shape="403.23,136.53 411.00,131.81"/>
    </edge>
    <edge id=":4606287874_0" function="internal">
        <lane id=":4606287874_0_0" index="0" disallow="tram rail_urban rail rail_electric rail_fast ship" speed="10.57" length="11.22" shape="190.61,246.39 191.28,243.44 191.90,241.35 193.08,239.68 195.42,237.97"/>
        <lane id=":4606287874_0_1" index="1" disallow="tram rail_urban rail rail_electric rail_fast ship" speed="11.59" length="11.22" shape="190.61,246.39 190.92,243.02 190.79,240.11 191.36,237.55 193.78,235.23"/>
    </edge>
    <edge id=":4606287874_2" function="internal">
        <lane id=":4606287874_2_0" index="0" disallow="tram rail_urban rail rail_electric rail_fast ship" speed="16.67" length="9.43" shape="187.44,243.52 189.92,242.07 191.49,240.85 193.02,239.58 195.42,237.97"/>
        <lane id=":4606287874_2_1" index="1" disallow="tram rail_urban rail rail_electric rail_fast ship" speed="16.67" length="9.43" shape="185.97,240.67 188.40,239.25 189.93,238.05 191.43,236.80 193.78,235.23"/>
        <lane id=":4606287874_2_2" index="2" disallow="tram rail_urban rail rail_electric rail_fast ship" speed="16.67" length="9.43" shape="184.51,237.83 186.89,236.43 188.38,235.25 189.84,234.03 192.13,232.48"/>
        <lane id=":4606287874_2_3" index="3" disallow="tram rail_urban rail rail_electric rail_fast ship" speed="16.67" length="9.43" shape="183.05,234.98 185.37,233.61 186.82,232.46 188.25,231.25 190.49,229.74"/>
    </edge>
    <edge id=":4606287878_0" function="internal">
        <lane id=":4606287878_0_0" index="0" disallow="tram rail_urban rail rail_electric rail_fast ship" speed="13.14" length="9.60" shape="188.46,272.30 187.35,269.80 187.20,267.88 187.53,265.84 187.87,262.99"/>
    </edge>
    <edge id=":4606287878_1" function="internal">
        <lane id=":4606287878_1_0" index="0" disallow="tram rail_urban rail rail_electric rail_fast ship" speed="16.67" length="9.65" shape="188.46,272.30 184.08,263.83"/>
        <lane id=":4606287878_1_1" index="1" disallow="tram rail_urban rail rail_electric rail_fast ship" speed="16.67" length="9.65" shape="185.68,273.90 181.25,265.33"/>
        <lane id=":4606287878_1_2" index="2" disallow="tram rail_urban rail rail_electric rail_fast ship" speed="16.67" length="9.65" shape="182.91,275.50 178.43,266.83"/>
    </edge>
    <edge id=":4606287879_0" function="internal">
        <lane id=":4606287879_0_0" index="0" disallow="tram rail_urban rail rail_electric rail_fast ship" speed="16.67" length="13.73" shape="128.98,154.73 121.03,143.46"/>
        <lane id=":4606287879_0_1" index="1" disallow="tram rail_urban rail rail_electric rail_fast ship" speed="16.67" length="13.73" shape="126.36,156.57 118.48,145.39"/>
    </edge>
    <edge id=":4606287879_2" function="internal">
        <lane id=":4606287879_2_0" index="0" disallow="pedestrian tram rail_urban rail rail_electric rail_fast ship" speed="8.22" length="13.97" shape="119.16,157.94 121.07,155.37 121.60,152.42 120.73,149.10 118.48,145.39"/>
    </edge>
    <edge id=":4723344715_0" function="internal">