<?xml version="1.0" encoding="UTF-8"?>

<!-- generated on 2023-07-17 16:00:04 by Eclipse SUMO netconvert Version 1.17.0
<configuration xmlns:xsi="http://www.w3.org/2001/XMLSchema-instance" xsi:noNamespaceSchemaLocation="http://sumo.dlr.de/xsd/netconvertConfiguration.xsd">

    <input>
        <sumo-net-file value="osm.net.xml.gz"/>
    </input>

    <output>
        <output-file value="osm.net.xml"/>
        <output.street-names value="true"/>
    </output>

    <processing>
        <geometry.min-radius.fix.railways value="false"/>
        <geometry.max-grade.fix value="false"/>
        <offset.disable-normalization value="true"/>
        <lefthand value="1"/>
    </processing>

    <junctions>
        <no-turnarounds value="true"/>
        <junctions.corner-detail value="5"/>
        <junctions.limit-turn-speed value="5.50"/>
        <rectangular-lane-cut value="0"/>
    </junctions>

    <pedestrian>
        <walkingareas value="0"/>
    </pedestrian>

</configuration>
-->

<net version="1.16" junctionCornerDetail="5" lefthand="true" limitTurnSpeed="5.50" xmlns:xsi="http://www.w3.org/2001/XMLSchema-instance" xsi:noNamespaceSchemaLocation="http://sumo.dlr.de/xsd/net_file.xsd">

    <location netOffset="-371013.71,-144539.56" convBoundary="0.00,0.00,716.82,667.74" origBoundary="103.840611,1.307423,103.847053,1.313465" projParameter="+proj=utm +zone=48 +ellps=WGS84 +datum=WGS84 +units=m +no_defs"/>

    <type id="highway.bridleway" priority="1" numLanes="1" speed="2.78" allow="pedestrian" oneway="1" width="2.00"/>
    <type id="highway.bus_guideway" priority="1" numLanes="1" speed="27.78" allow="bus" oneway="1"/>
    <type id="highway.cycleway" priority="1" numLanes="1" speed="5.56" allow="bicycle" oneway="0" width="1.00"/>
    <type id="highway.footway" priority="1" numLanes="1" speed="2.78" allow="pedestrian" oneway="1" width="2.00"/>
    <type id="highway.ford" priority="1" numLanes="1" speed="2.78" allow="army" oneway="0"/>
    <type id="highway.living_street" priority="2" numLanes="1" speed="2.78" disallow="tram rail_urban rail rail_electric rail_fast ship" oneway="0"/>
    <type id="highway.motorway" priority="14" numLanes="2" speed="39.44" allow="private emergency authority army vip passenger hov taxi bus coach delivery truck trailer motorcycle evehicle custom1 custom2" oneway="1"/>
    <type id="highway.motorway_link" priority="9" numLanes="1" speed="22.22" allow="private emergency authority army vip passenger hov taxi bus coach delivery truck trailer motorcycle evehicle custom1 custom2" oneway="1"/>
    <type id="highway.path" priority="1" numLanes="1" speed="5.56" allow="pedestrian bicycle" oneway="0" width="2.00"/>
    <type id="highway.pedestrian" priority="1" numLanes="1" speed="2.78" allow="pedestrian" oneway="1" width="2.00"/>
    <type id="highway.primary" priority="12" numLanes="2" speed="27.78" disallow="tram rail_urban rail rail_electric rail_fast ship" oneway="0"/>
    <type id="highway.primary_link" priority="7" numLanes="1" speed="22.22" disallow="tram rail_urban rail rail_electric rail_fast ship" oneway="0"/>
    <type id="highway.raceway" priority="15" numLanes="2" speed="83.33" allow="vip" oneway="0"/>
    <type id="highway.residential" priority="3" numLanes="1" speed="13.89" disallow="tram rail_urban rail rail_electric rail_fast ship" oneway="0"/>
    <type id="highway.secondary" priority="11" numLanes="1" speed="27.78" disallow="tram rail_urban rail rail_electric rail_fast ship" oneway="0"/>
    <type id="highway.secondary_link" priority="6" numLanes="1" speed="22.22" disallow="tram rail_urban rail rail_electric rail_fast ship" oneway="0"/>
    <type id="highway.service" priority="1" numLanes="1" speed="5.56" allow="pedestrian delivery bicycle" oneway="0"/>
    <type id="highway.stairs" priority="1" numLanes="1" speed="1.39" allow="pedestrian" oneway="1" width="2.00"/>
    <type id="highway.step" priority="1" numLanes="1" speed="1.39" allow="pedestrian" oneway="1" width="2.00"/>
    <type id="highway.steps" priority="1" numLanes="1" speed="1.39" allow="pedestrian" oneway="1" width="2.00"/>
    <type id="highway.tertiary" priority="10" numLanes="1" speed="22.22" disallow="tram rail_urban rail rail_electric rail_fast ship" oneway="0"/>
    <type id="highway.tertiary_link" priority="5" numLanes="1" speed="22.22" disallow="tram rail_urban rail rail_electric rail_fast ship" oneway="0"/>
    <type id="highway.track" priority="1" numLanes="1" speed="5.56" allow="pedestrian motorcycle moped bicycle" oneway="0"/>
    <type id="highway.trunk" priority="13" numLanes="2" speed="27.78" disallow="pedestrian bicycle tram rail_urban rail rail_electric rail_fast ship" oneway="0"/>
    <type id="highway.trunk_link" priority="8" numLanes="1" speed="22.22" disallow="pedestrian bicycle tram rail_urban rail rail_electric rail_fast ship" oneway="0"/>
    <type id="highway.unclassified" priority="4" numLanes="1" speed="13.89" disallow="tram rail_urban rail rail_electric rail_fast ship" oneway="0"/>
    <type id="highway.unsurfaced" priority="1" numLanes="1" speed="8.33" disallow="tram rail_urban rail rail_electric rail_fast ship" oneway="0"/>
    <type id="railway.highspeed" priority="21" numLanes="1" speed="69.44" allow="rail_fast" oneway="1"/>
    <type id="railway.light_rail" priority="19" numLanes="1" speed="27.78" allow="rail_urban" oneway="1"/>
    <type id="railway.preserved" priority="16" numLanes="1" speed="27.78" allow="rail" oneway="1"/>
    <type id="railway.rail" priority="20" numLanes="1" speed="44.44" allow="rail" oneway="1"/>
    <type id="railway.subway" priority="18" numLanes="1" speed="27.78" allow="rail_urban" oneway="1"/>
    <type id="railway.tram" priority="17" numLanes="1" speed="13.89" allow="tram" oneway="1"/>

    <edge id=":1241531426_0" function="internal">
        <lane id=":1241531426_0_0" index="0" disallow="tram rail_urban rail rail_electric rail_fast ship" speed="13.89" length="7.73" shape="500.23,499.33 499.25,497.25 498.47,495.86 497.82,494.44 497.21,492.24"/>
    </edge>
    <edge id=":1241531426_1" function="internal">
        <lane id=":1241531426_1_0" index="0" allow="private emergency authority army vip passenger hov taxi bus coach delivery truck trailer motorcycle evehicle custom1 custom2" speed="13.89" length="8.13" shape="496.97,500.53 496.32,498.21 495.56,496.72 494.79,495.22 494.08,492.92"/>
        <lane id=":1241531426_1_1" index="1" allow="private emergency authority army vip passenger hov taxi bus coach delivery truck trailer motorcycle evehicle custom1 custom2" speed="13.89" length="8.13" shape="493.83,501.13 493.18,498.84 492.42,497.36 491.66,495.88 490.95,493.60"/>
    </edge>
    <edge id=":1241531569_0" function="internal">
        <lane id=":1241531569_0_0" index="0" disallow="tram rail_urban rail rail_electric rail_fast ship" speed="13.89" length="0.51" shape="525.87,596.14 525.78,596.02 525.73,595.93 525.69,595.83 525.65,595.68"/>
    </edge>
    <edge id=":1538250915_0" function="internal">
        <lane id=":1538250915_0_0" index="0" disallow="pedestrian bicycle tram rail_urban rail rail_electric rail_fast ship" speed="13.04" length="18.72" shape="663.18,136.43 655.28,136.97 650.27,136.36 648.16,134.60 648.94,131.70"/>
        <lane id=":1538250915_0_1" index="1" disallow="pedestrian bicycle tram rail_urban rail rail_electric rail_fast ship" speed="11.46" length="14.35" shape="663.18,136.43 656.99,136.89 653.00,136.55 651.22,135.39 651.63,133.42"/>
        <lane id=":1538250915_0_2" index="2" disallow="pedestrian bicycle tram rail_urban rail rail_electric rail_fast ship" speed="9.67" length="10.05" shape="663.18,136.43 658.70,136.82 655.73,136.73 654.28,136.18 654.33,135.15"/>
        <lane id=":1538250915_0_3" index="3" disallow="pedestrian bicycle tram rail_urban rail rail_electric rail_fast ship" speed="7.72" length="6.23" shape="663.18,136.43 661.87,136.43 659.93,136.38 658.07,136.46 657.03,136.87"/>
    </edge>
    <edge id=":1538250915_4" function="internal">
        <lane id=":1538250915_4_0" index="0" allow="bus" speed="3.65" length="4.67" shape="659.72,138.59 659.69,137.15 659.24,136.38 658.35,136.29 657.03,136.87"/>
    </edge>
    <edge id=":158094808_0" function="internal">
        <lane id=":158094808_0_0" index="0" allow="private emergency authority army vip passenger hov taxi bus coach delivery truck trailer motorcycle evehicle custom1 custom2" speed="22.22" length="7.55" shape="252.48,152.98 250.75,151.28 249.79,149.86 248.79,148.52 246.91,147.03"/>
        <lane id=":158094808_0_1" index="1" allow="private emergency authority army vip passenger hov taxi bus coach delivery truck trailer motorcycle evehicle custom1 custom2" speed="22.22" length="7.55" shape="250.48,155.47 248.83,153.84 247.93,152.47 246.98,151.17 245.20,149.73"/>
        <lane id=":158094808_0_2" index="2" allow="private emergency authority army vip passenger hov taxi bus coach delivery truck trailer motorcycle evehicle custom1 custom2" speed="22.22" length="7.55" shape="248.48,157.97 246.91,156.40 246.07,155.07 245.18,153.81 243.48,152.44"/>
        <lane id=":158094808_0_3" index="3" allow="private emergency authority army vip passenger hov taxi bus coach delivery truck trailer motorcycle evehicle custom1 custom2" speed="22.22" length="7.55" shape="246.47,160.46 244.99,158.96 244.21,157.68 243.38,156.46 241.77,155.14"/>
        <lane id=":158094808_0_4" index="4" allow="private emergency authority army vip passenger hov taxi bus coach delivery truck trailer motorcycle evehicle custom1 custom2" speed="22.22" length="7.55" shape="246.47,160.46 244.74,159.40 243.35,159.03 241.91,158.73 240.06,157.84"/>
    </edge>
    <edge id=":1687936701_0" function="internal">
        <lane id=":1687936701_0_0" index="0" disallow="pedestrian bicycle tram rail_urban rail rail_electric rail_fast ship" speed="15.28" length="9.03" shape="134.24,481.92 136.41,480.68 137.75,479.57 139.10,478.48 141.29,477.28"/>
        <lane id=":1687936701_0_1" index="1" disallow="pedestrian bicycle tram rail_urban rail rail_electric rail_fast ship" speed="15.28" length="9.03" shape="131.91,479.48 134.38,478.10 135.93,476.89 137.48,475.70 139.98,474.36"/>
    </edge>
    <edge id=":1687936701_2" function="internal">
        <lane id=":1687936701_2_0" index="0" disallow="pedestrian bicycle tram rail_urban rail rail_electric rail_fast ship" speed="16.67" length="13.12" shape="127.65,479.65 139.98,474.36"/>
        <lane id=":1687936701_2_1" index="1" disallow="pedestrian bicycle tram rail_urban rail rail_electric rail_fast ship" speed="16.67" length="13.12" shape="126.89,476.50 138.67,471.44"/>
    </edge>
    <edge id=":1738410982_0" function="internal">
        <lane id=":1738410982_0_0" index="0" disallow="tram rail_urban rail rail_electric rail_fast ship" speed="13.89" length="23.22" shape="394.65,281.96 381.67,262.70"/>
    </edge>
    <edge id=":1738410982_1" function="internal">
        <lane id=":1738410982_1_0" index="0" disallow="tram rail_urban rail rail_electric rail_fast ship" speed="13.89" length="22.50" shape="379.05,264.53 380.86,268.23 382.17,273.09 383.24,279.04 384.30,285.98"/>
        <lane id=":1738410982_1_1" index="1" disallow="tram rail_urban rail rail_electric rail_fast ship" speed="13.89" length="22.50" shape="379.05,264.53 381.35,268.15 383.76,272.85 385.91,278.63 387.46,285.50"/>
    </edge>
    <edge id=":1790563465_0" function="internal">
        <lane id=":1790563465_0_0" index="0" allow="private emergency authority army vip passenger hov taxi bus coach delivery truck trailer motorcycle evehicle custom1 custom2" speed="23.61" length="0.64" shape="454.49,545.67 454.66,546.52"/>
        <lane id=":1790563465_0_1" index="1" allow="private emergency authority army vip passenger hov taxi bus coach delivery truck trailer motorcycle evehicle custom1 custom2" speed="23.61" length="0.64" shape="457.64,545.10 457.78,545.80"/>
        <lane id=":1790563465_0_2" index="2" allow="private emergency authority army vip passenger hov taxi bus coach delivery truck trailer motorcycle evehicle custom1 custom2" speed="23.61" length="0.64" shape="460.79,544.53 460.90,545.08"/>
        <lane id=":1790563465_0_3" index="3" allow="private emergency authority army vip passenger hov taxi bus coach delivery truck trailer motorcycle evehicle custom1 custom2" speed="23.61" length="0.64" shape="463.94,543.96 464.02,544.36"/>
    </edge>
    <edge id=":1790582699_0" function="internal">
        <lane id=":1790582699_0_0" index="0" disallow="pedestrian bicycle tram rail_urban rail rail_electric rail_fast ship" speed="16.67" length="7.94" shape="541.08,265.89 539.22,266.81 537.61,266.70 535.95,266.53 533.95,267.27"/>
        <lane id=":1790582699_0_1" index="1" disallow="pedestrian bicycle tram rail_urban rail rail_electric rail_fast ship" speed="16.67" length="7.94" shape="543.15,268.33 541.21,269.32 539.53,269.26 537.81,269.14 535.72,269.93"/>
        <lane id=":1790582699_0_2" index="2" disallow="pedestrian bicycle tram rail_urban rail rail_electric rail_fast ship" speed="16.67" length="7.94" shape="545.21,270.78 543.20,271.83 541.46,271.82 539.67,271.74 537.50,272.59"/>
        <lane id=":1790582699_0_3" index="3" disallow="pedestrian bicycle tram rail_urban rail rail_electric rail_fast ship" speed="16.67" length="7.94" shape="547.28,273.22 545.18,274.34 543.39,274.38 541.53,274.34 539.28,275.25"/>
        <lane id=":1790582699_0_4" index="4" disallow="pedestrian bicycle tram rail_urban rail rail_electric rail_fast ship" speed="16.67" length="7.94" shape="547.28,273.22 545.51,274.71 544.27,275.70 542.98,276.62 541.06,277.91"/>
    </edge>
    <edge id=":1790582699_5" function="internal">
        <lane id=":1790582699_5_0" index="0" allow="bus bicycle" speed="16.67" length="8.17" shape="542.83,280.58 544.84,279.22 546.20,278.26 547.49,277.22 549.35,275.66"/>
    </edge>
    <edge id=":1811675357_0" function="internal">
        <lane id=":1811675357_0_0" index="0" disallow="pedestrian bicycle tram rail_urban rail rail_electric rail_fast ship" speed="16.67" length="7.77" shape="686.18,159.41 687.10,157.42 686.99,155.71 686.88,154.01 687.78,152.00"/>
        <lane id=":1811675357_0_1" index="1" disallow="pedestrian bicycle tram rail_urban rail rail_electric rail_fast ship" speed="16.67" length="7.77" shape="683.67,157.42 684.58,155.44 684.47,153.74 684.36,152.04 685.25,150.05"/>
        <lane id=":1811675357_0_2" index="2" disallow="pedestrian bicycle tram rail_urban rail rail_electric rail_fast ship" speed="16.67" length="7.77" shape="681.16,155.44 682.06,153.47 681.95,151.77 681.83,150.08 682.72,148.09"/>
    </edge>
    <edge id=":1811675357_3" function="internal">
        <lane id=":1811675357_3_0" index="0" disallow="pedestrian bicycle tram rail_urban rail rail_electric rail_fast ship" speed="6.84" length="8.24" shape="676.13,151.48 677.70,149.18 678.53,147.17 678.62,145.45 677.99,144.02"/>
    </edge>
    <edge id=":1834285297_0" function="internal">
        <lane id=":1834285297_0_0" index="0" disallow="tram rail_urban rail rail_electric rail_fast ship" speed="13.89" length="10.92" shape="149.28,385.84 144.83,375.95"/>
        <lane id=":1834285297_0_1" index="1" disallow="tram rail_urban rail rail_electric rail_fast ship" speed="13.89" length="10.92" shape="146.39,387.22 141.88,377.20"/>
    </edge>
    <edge id=":1834285297_2" function="internal">
        <lane id=":1834285297_2_0" index="0" disallow="pedestrian tram rail_urban rail rail_electric rail_fast ship" speed="6.51" length="8.92" shape="146.39,387.22 145.04,385.19 143.36,384.06 141.35,383.84 139.01,384.53"/>
    </edge>
    <edge id=":2122058334_0" function="internal">
        <lane id=":2122058334_0_0" index="0" disallow="tram rail_urban rail rail_electric rail_fast ship" speed="5.77" length="3.87" shape="147.29,512.51 147.55,511.43 147.98,510.56 148.58,509.89 149.33,509.41"/>
    </edge>
    <edge id=":2122058334_1" function="internal">
        <lane id=":2122058334_1_0" index="0" disallow="tram rail_urban rail rail_electric rail_fast ship" speed="3.65" length="4.67" shape="147.29,512.51 146.68,511.20 145.95,510.68 145.10,510.96 144.13,512.02"/>
    </edge>
    <edge id=":2122058348_0" function="internal">
        <lane id=":2122058348_0_0" index="0" disallow="tram rail_urban rail rail_electric rail_fast ship" speed="13.89" length="12.67" shape="205.14,490.92 204.59,487.57 203.93,484.70 202.99,481.90 201.63,478.80"/>
    </edge>
    <edge id=":2122058348_1" function="internal">
        <lane id=":2122058348_1_0" index="0" disallow="tram rail_urban rail rail_electric rail_fast ship" speed="5.95" length="9.09" shape="195.52,487.94 198.01,487.15 199.92,487.46 201.24,488.87 201.98,491.38"/>
    </edge>
    <edge id=":2122058348_2" function="internal">
        <lane id=":2122058348_2_0" index="0" disallow="tram rail_urban rail rail_electric rail_fast ship" speed="7.49" length="12.30" shape="195.52,487.94 199.10,485.84 201.31,483.61 202.16,481.27 201.63,478.80"/>
    </edge>
    <edge id=":2122058348_3" function="internal">
        <lane id=":2122058348_3_0" index="0" disallow="tram rail_urban rail rail_electric rail_fast ship" speed="13.89" length="11.72" shape="198.75,480.18 200.06,483.14 200.90,485.62 201.47,488.18 201.98,491.38"/>
    </edge>
    <edge id=":2122058352_0" function="internal">
        <lane id=":2122058352_0_0" index="0" disallow="tram rail_urban rail rail_electric rail_fast ship" speed="13.89" length="13.86" shape="331.41,463.78 325.40,451.29"/>
    </edge>
    <edge id=":2122058352_1" function="internal">
        <lane id=":2122058352_1_0" index="0" disallow="tram rail_urban rail rail_electric rail_fast ship" speed="8.05" length="3.78" shape="331.41,463.78 329.20,460.72"/>
    </edge>
    <edge id=":2122058352_6" function="internal">
        <lane id=":2122058352_6_0" index="0" disallow="tram rail_urban rail rail_electric rail_fast ship" speed="8.05" length="10.13" shape="329.20,460.72 326.52,459.05 323.36,458.78 319.73,459.90"/>
    </edge>
    <edge id=":2122058352_2" function="internal">
        <lane id=":2122058352_2_0" index="0" disallow="tram rail_urban rail rail_electric rail_fast ship" speed="6.57" length="8.91" shape="321.09,462.79 323.42,462.07 325.44,462.25 327.16,463.31 328.58,465.27"/>
    </edge>
    <edge id=":2122058352_3" function="internal">
        <lane id=":2122058352_3_0" index="0" disallow="tram rail_urban rail rail_electric rail_fast ship" speed="8.01" length="13.93" shape="321.09,462.79 324.27,460.71 326.05,458.09 326.43,454.96 325.40,451.29"/>
    </edge>
    <edge id=":2122058352_4" function="internal">
        <lane id=":2122058352_4_0" index="0" disallow="tram rail_urban rail rail_electric rail_fast ship" speed="6.51" length="8.86" shape="322.47,452.58 323.12,454.91 322.88,456.91 321.75,458.57 319.73,459.90"/>
    </edge>
    <edge id=":2122058352_5" function="internal">
        <lane id=":2122058352_5_0" index="0" disallow="tram rail_urban rail rail_electric rail_fast ship" speed="13.89" length="14.08" shape="322.47,452.58 328.58,465.27"/>
    </edge>
    <edge id=":2122058353_0" function="internal">
        <lane id=":2122058353_0_0" index="0" disallow="tram rail_urban rail rail_electric rail_fast ship" speed="6.50" length="4.16" shape="372.10,549.01 372.75,548.16 373.16,547.24 373.36,546.24 373.34,545.18"/>
    </edge>
    <edge id=":2122058353_1" function="internal">
        <lane id=":2122058353_1_0" index="0" disallow="tram rail_urban rail rail_electric rail_fast ship" speed="4.13" length="1.39" shape="370.16,545.57 370.17,545.92 370.10,546.25 369.96,546.56 369.75,546.85"/>
    </edge>
    <edge id=":2122058360_0" function="internal">
        <lane id=":2122058360_0_0" index="0" allow="bus bicycle" speed="16.67" length="15.36" shape="306.84,394.96 292.79,401.16"/>
    </edge>
    <edge id=":2122058360_1" function="internal">
        <lane id=":2122058360_1_0" index="0" allow="bus bicycle" speed="10.45" length="2.58" shape="306.84,394.96 304.87,396.63"/>
    </edge>
    <edge id=":2122058360_2" function="internal">
        <lane id=":2122058360_2_0" index="0" allow="bus" speed="3.65" length="1.44" shape="306.84,394.96 306.03,396.16"/>
    </edge>
    <edge id=":2122058360_12" function="internal">
        <lane id=":2122058360_12_0" index="0" allow="bus bicycle" speed="10.45" length="23.33" shape="304.87,396.63 303.48,397.81 302.42,402.67 303.65,409.54 307.18,418.43"/>
    </edge>
    <edge id=":2122058360_13" function="internal">
        <lane id=":2122058360_13_0" index="0" allow="bus" speed="3.65" length="3.23" shape="306.03,396.16 305.96,397.05 306.64,397.64 308.05,397.92"/>
    </edge>
    <edge id=":2122058360_3" function="internal">
        <lane id=":2122058360_3_0" index="0" disallow="pedestrian bicycle tram rail_urban rail rail_electric rail_fast ship" speed="6.40" length="9.04" shape="310.07,417.06 309.34,414.68 309.57,412.67 310.76,411.03 312.91,409.77"/>
        <lane id=":2122058360_3_1" index="1" disallow="pedestrian bicycle tram rail_urban rail rail_electric rail_fast ship" speed="7.22" length="11.82" shape="310.07,417.06 308.75,413.41 308.58,410.48 309.56,408.28 311.69,406.80"/>
    </edge>
    <edge id=":2122058360_5" function="internal">
        <lane id=":2122058360_5_0" index="0" allow="bus bicycle" speed="10.56" length="25.57" shape="310.07,417.06 305.50,408.68 301.10,403.23 296.86,400.73 292.79,401.16"/>
    </edge>
    <edge id=":2122058360_6" function="internal">
        <lane id=":2122058360_6_0" index="0" disallow="pedestrian bicycle tram rail_urban rail rail_electric rail_fast ship" speed="8.13" length="14.72" shape="296.92,409.83 299.46,409.46 302.01,410.77 304.59,413.76 307.18,418.43"/>
    </edge>
    <edge id=":2122058360_7" function="internal">
        <lane id=":2122058360_7_0" index="0" disallow="pedestrian bicycle tram rail_urban rail rail_electric rail_fast ship" speed="16.67" length="15.32" shape="296.92,409.83 301.12,408.39 304.24,408.17 307.40,408.03 311.69,406.80"/>
        <lane id=":2122058360_7_1" index="1" disallow="pedestrian bicycle tram rail_urban rail rail_electric rail_fast ship" speed="16.67" length="15.32" shape="295.54,406.94 299.79,405.48 302.95,405.25 306.14,405.09 310.48,403.84"/>
        <lane id=":2122058360_7_2" index="2" disallow="pedestrian bicycle tram rail_urban rail rail_electric rail_fast ship" speed="16.67" length="15.32" shape="294.16,404.05 298.46,402.57 301.65,402.32 304.87,402.15 309.26,400.88"/>
        <lane id=":2122058360_7_3" index="3" disallow="pedestrian bicycle tram rail_urban rail rail_electric rail_fast ship" speed="16.67" length="15.32" shape="294.16,404.05 308.05,397.92"/>
    </edge>
    <edge id=":2122058360_11" function="internal">
        <lane id=":2122058360_11_0" index="0" allow="bus" speed="3.65" length="1.44" shape="294.16,404.05 294.90,402.81"/>
    </edge>
    <edge id=":2122058360_14" function="internal">
        <lane id=":2122058360_14_0" index="0" allow="bus" speed="3.65" length="3.23" shape="294.90,402.81 294.92,401.92 294.21,401.37 292.79,401.16"/>
    </edge>
    <edge id=":2122058371_0" function="internal">
        <lane id=":2122058371_0_0" index="0" allow="bus bicycle" speed="9.32" length="1.82" shape="193.36,448.48 191.96,449.63"/>
    </edge>
    <edge id=":2122058371_1" function="internal">
        <lane id=":2122058371_1_0" index="0" allow="bus" speed="3.65" length="1.28" shape="193.36,448.48 192.70,449.58"/>
    </edge>
    <edge id=":2122058371_7" function="internal">
        <lane id=":2122058371_7_0" index="0" allow="bus bicycle" speed="9.32" length="17.82" shape="191.96,449.63 190.29,451.00 189.03,454.75 189.59,459.75 191.96,465.99"/>
    </edge>
    <edge id=":2122058371_8" function="internal">
        <lane id=":2122058371_8_0" index="0" allow="bus" speed="3.65" length="3.40" shape="192.70,449.58 192.62,449.72 192.60,450.62 193.31,451.17 194.74,451.37"/>
    </edge>
    <edge id=":2122058371_2" function="internal">
        <lane id=":2122058371_2_0" index="0" disallow="pedestrian bicycle tram rail_urban rail rail_electric rail_fast ship" speed="6.50" length="9.03" shape="194.85,464.61 194.11,462.25 194.30,460.22 195.43,458.52 197.49,457.15"/>
    </edge>
    <edge id=":2122058371_3" function="internal">
        <lane id=":2122058371_3_0" index="0" disallow="pedestrian bicycle tram rail_urban rail rail_electric rail_fast ship" speed="7.81" length="13.22" shape="182.38,458.85 184.89,458.44 187.32,459.50 189.68,462.01 191.96,465.99"/>
    </edge>
    <edge id=":2122058371_4" function="internal">
        <lane id=":2122058371_4_0" index="0" disallow="pedestrian bicycle tram rail_urban rail rail_electric rail_fast ship" speed="16.67" length="15.38" shape="182.38,458.85 186.71,457.73 189.97,458.06 193.21,458.35 197.49,457.15"/>
        <lane id=":2122058371_4_1" index="1" disallow="pedestrian bicycle tram rail_urban rail rail_electric rail_fast ship" speed="16.67" length="15.38" shape="181.07,455.93 185.38,454.82 188.62,455.15 191.85,455.46 196.11,454.26"/>
        <lane id=":2122058371_4_2" index="2" disallow="pedestrian bicycle tram rail_urban rail rail_electric rail_fast ship" speed="16.67" length="15.38" shape="179.77,453.01 184.05,451.91 187.28,452.25 190.50,452.56 194.74,451.37"/>
    </edge>
    <edge id=":2122058378_0" function="internal">
        <lane id=":2122058378_0_0" index="0" disallow="tram rail_urban rail rail_electric rail_fast ship" speed="4.26" length="1.22" shape="213.32,574.71 213.02,574.52 212.83,574.36 212.70,574.14 212.58,573.81"/>
    </edge>
    <edge id=":2122058378_1" function="internal">
        <lane id=":2122058378_1_0" index="0" disallow="tram rail_urban rail rail_electric rail_fast ship" speed="6.76" length="3.65" shape="209.54,574.81 209.90,575.81 210.29,576.46 210.86,576.96 211.78,577.51"/>
    </edge>
    <edge id=":2373594947_0" function="internal">
        <lane id=":2373594947_0_0" index="0" disallow="pedestrian bicycle tram rail_urban rail rail_electric rail_fast ship" speed="6.76" length="9.33" shape="323.31,360.98 320.95,361.64 318.86,361.37 317.06,360.17 315.55,358.04"/>
    </edge>
    <edge id=":2373594947_1" function="internal">
        <lane id=":2373594947_1_0" index="0" disallow="pedestrian bicycle tram rail_urban rail rail_electric rail_fast ship" speed="16.67" length="14.38" shape="323.31,360.98 310.19,366.92"/>
        <lane id=":2373594947_1_1" index="1" disallow="pedestrian bicycle tram rail_urban rail rail_electric rail_fast ship" speed="16.67" length="14.38" shape="324.62,363.90 311.52,369.83"/>
        <lane id=":2373594947_1_2" index="2" disallow="pedestrian bicycle tram rail_urban rail rail_electric rail_fast ship" speed="16.67" length="14.38" shape="325.93,366.82 312.85,372.74"/>
    </edge>
    <edge id=":2373594947_4" function="internal">
        <lane id=":2373594947_4_0" index="0" allow="bus" speed="3.65" length="1.44" shape="325.93,366.82 325.17,368.04"/>
    </edge>
    <edge id=":2373594947_10" function="internal">
        <lane id=":2373594947_10_0" index="0" allow="bus" speed="3.65" length="3.23" shape="325.17,368.04 325.13,368.93 325.82,369.50 327.24,369.74"/>
    </edge>
    <edge id=":2373594947_5" function="internal">
        <lane id=":2373594947_5_0" index="0" allow="bus bicycle" speed="16.67" length="14.35" shape="314.17,375.65 327.24,369.74"/>
    </edge>
    <edge id=":2373594947_6" function="internal">
        <lane id=":2373594947_6_0" index="0" allow="bus bicycle" speed="9.22" length="3.11" shape="314.17,375.65 316.63,373.75"/>
    </edge>
    <edge id=":2373594947_7" function="internal">
        <lane id=":2373594947_7_0" index="0" allow="bus" speed="3.65" length="1.44" shape="314.17,375.65 314.93,374.43"/>
    </edge>
    <edge id=":2373594947_11" function="internal">
        <lane id=":2373594947_11_0" index="0" allow="bus bicycle" speed="9.22" length="16.92" shape="316.63,373.75 317.49,373.08 318.83,369.29 318.18,364.27 315.55,358.04"/>
    </edge>
    <edge id=":2373594947_12" function="internal">
        <lane id=":2373594947_12_0" index="0" allow="bus" speed="3.65" length="3.23" shape="314.93,374.43 314.97,373.53 314.27,372.97 312.85,372.74"/>
    </edge>
    <edge id=":2373594947_8" function="internal">
        <lane id=":2373594947_8_0" index="0" disallow="pedestrian bicycle tram rail_urban rail rail_electric rail_fast ship" speed="6.38" length="9.03" shape="312.71,359.53 313.56,361.87 313.41,363.89 312.29,365.57 310.19,366.92"/>
    </edge>
    <edge id=":2373594947_9" function="internal">
        <lane id=":2373594947_9_0" index="0" allow="bus bicycle" speed="9.52" length="19.52" shape="312.71,359.53 316.31,365.24 319.92,368.84 323.57,370.34 327.24,369.74"/>
    </edge>
    <edge id=":2374434190_0" function="internal">
        <lane id=":2374434190_0_0" index="0" disallow="tram rail_urban rail rail_electric rail_fast ship" speed="3.65" length="4.67" shape="238.83,248.72 238.94,247.28 238.55,246.48 237.68,246.30 236.31,246.76"/>
    </edge>
    <edge id=":241916751_0" function="internal">
        <lane id=":241916751_0_0" index="0" disallow="pedestrian bicycle tram rail_urban rail rail_electric rail_fast ship" speed="15.28" length="3.81" shape="151.56,444.56 150.70,448.28"/>
        <lane id=":241916751_0_1" index="1" disallow="pedestrian bicycle tram rail_urban rail rail_electric rail_fast ship" speed="15.28" length="4.08" shape="152.89,447.47 151.61,451.34"/>
    </edge>
    <edge id=":241916751_2" function="internal">
        <lane id=":241916751_2_0" index="0" disallow="pedestrian bicycle tram rail_urban rail rail_electric rail_fast ship" speed="16.67" length="4.09" shape="154.21,450.38 150.76,448.46"/>