<?xml version="1.0" encoding="UTF-8"?>

<!-- generated on 2023-07-11 13:33:15 by Eclipse SUMO netconvert Version 1.17.0
<configuration xmlns:xsi="http://www.w3.org/2001/XMLSchema-instance" xsi:noNamespaceSchemaLocation="http://sumo.dlr.de/xsd/netconvertConfiguration.xsd">

    <input>
        <sumo-net-file value="osm.net.xml.gz"/>
    </input>

    <output>
        <output-file value="osm.net.xml"/>
        <output.street-names value="true"/>
    </output>

    <processing>
        <geometry.min-radius.fix.railways value="false"/>
        <geometry.max-grade.fix value="false"/>
        <offset.disable-normalization value="true"/>
        <lefthand value="0"/>
    </processing>

    <junctions>
        <no-turnarounds value="true"/>
        <junctions.corner-detail value="5"/>
        <junctions.limit-turn-speed value="5.50"/>
        <rectangular-lane-cut value="0"/>
    </junctions>

    <pedestrian>
        <walkingareas value="0"/>
    </pedestrian>

</configuration>
-->

<net version="1.16" junctionCornerDetail="5" limitTurnSpeed="5.50" xmlns:xsi="http://www.w3.org/2001/XMLSchema-instance" xsi:noNamespaceSchemaLocation="http://sumo.dlr.de/xsd/net_file.xsd">

    <location netOffset="-354827.58,-149529.29" convBoundary="0.00,0.00,506.60,539.68" origBoundary="103.695122,1.352483,103.699675,1.357364" projParameter="+proj=utm +zone=48 +ellps=WGS84 +datum=WGS84 +units=m +no_defs"/>

    <type id="highway.bridleway" priority="1" numLanes="1" speed="2.78" allow="pedestrian" oneway="1" width="2.00"/>
    <type id="highway.bus_guideway" priority="1" numLanes="1" speed="27.78" allow="bus" oneway="1"/>
    <type id="highway.cycleway" priority="1" numLanes="1" speed="5.56" allow="bicycle" oneway="0" width="1.00"/>
    <type id="highway.footway" priority="1" numLanes="1" speed="2.78" allow="pedestrian" oneway="1" width="2.00"/>
    <type id="highway.ford" priority="1" numLanes="1" speed="2.78" allow="army" oneway="0"/>
    <type id="highway.living_street" priority="2" numLanes="1" speed="2.78" disallow="tram rail_urban rail rail_electric rail_fast ship" oneway="0"/>
    <type id="highway.motorway" priority="14" numLanes="2" speed="39.44" allow="private emergency authority army vip passenger hov taxi bus coach delivery truck trailer motorcycle evehicle custom1 custom2" oneway="1"/>
    <type id="highway.motorway_link" priority="9" numLanes="1" speed="22.22" allow="private emergency authority army vip passenger hov taxi bus coach delivery truck trailer motorcycle evehicle custom1 custom2" oneway="1"/>
    <type id="highway.path" priority="1" numLanes="1" speed="5.56" allow="pedestrian bicycle" oneway="0" width="2.00"/>
    <type id="highway.pedestrian" priority="1" numLanes="1" speed="2.78" allow="pedestrian" oneway="1" width="2.00"/>
    <type id="highway.primary" priority="12" numLanes="2" speed="27.78" disallow="tram rail_urban rail rail_electric rail_fast ship" oneway="0"/>
    <type id="highway.primary_link" priority="7" numLanes="1" speed="22.22" disallow="tram rail_urban rail rail_electric rail_fast ship" oneway="0"/>
    <type id="highway.raceway" priority="15" numLanes="2" speed="83.33" allow="vip" oneway="0"/>
    <type id="highway.residential" priority="3" numLanes="1" speed="13.89" disallow="tram rail_urban rail rail_electric rail_fast ship" oneway="0"/>
    <type id="highway.secondary" priority="11" numLanes="1" speed="27.78" disallow="tram rail_urban rail rail_electric rail_fast ship" oneway="0"/>
    <type id="highway.secondary_link" priority="6" numLanes="1" speed="22.22" disallow="tram rail_urban rail rail_electric rail_fast ship" oneway="0"/>
    <type id="highway.service" priority="1" numLanes="1" speed="5.56" allow="pedestrian delivery bicycle" oneway="0"/>
    <type id="highway.stairs" priority="1" numLanes="1" speed="1.39" allow="pedestrian" oneway="1" width="2.00"/>
    <type id="highway.step" priority="1" numLanes="1" speed="1.39" allow="pedestrian" oneway="1" width="2.00"/>
    <type id="highway.steps" priority="1" numLanes="1" speed="1.39" allow="pedestrian" oneway="1" width="2.00"/>
    <type id="highway.tertiary" priority="10" numLanes="1" speed="22.22" disallow="tram rail_urban rail rail_electric rail_fast ship" oneway="0"/>
    <type id="highway.tertiary_link" priority="5" numLanes="1" speed="22.22" disallow="tram rail_urban rail rail_electric rail_fast ship" oneway="0"/>
    <type id="highway.track" priority="1" numLanes="1" speed="5.56" allow="pedestrian motorcycle moped bicycle" oneway="0"/>
    <type id="highway.trunk" priority="13" numLanes="2" speed="27.78" disallow="pedestrian bicycle tram rail_urban rail rail_electric rail_fast ship" oneway="0"/>
    <type id="highway.trunk_link" priority="8" numLanes="1" speed="22.22" disallow="pedestrian bicycle tram rail_urban rail rail_electric rail_fast ship" oneway="0"/>
    <type id="highway.unclassified" priority="4" numLanes="1" speed="13.89" disallow="tram rail_urban rail rail_electric rail_fast ship" oneway="0"/>
    <type id="highway.unsurfaced" priority="1" numLanes="1" speed="8.33" disallow="tram rail_urban rail rail_electric rail_fast ship" oneway="0"/>
    <type id="railway.highspeed" priority="21" numLanes="1" speed="69.44" allow="rail_fast" oneway="1"/>
    <type id="railway.light_rail" priority="19" numLanes="1" speed="27.78" allow="rail_urban" oneway="1"/>
    <type id="railway.preserved" priority="16" numLanes="1" speed="27.78" allow="rail" oneway="1"/>
    <type id="railway.rail" priority="20" numLanes="1" speed="44.44" allow="rail" oneway="1"/>
    <type id="railway.subway" priority="18" numLanes="1" speed="27.78" allow="rail_urban" oneway="1"/>
    <type id="railway.tram" priority="17" numLanes="1" speed="13.89" allow="tram" oneway="1"/>

    <edge id=":4738344318_0" function="internal">
        <lane id=":4738344318_0_0" index="0" disallow="tram rail_urban rail rail_electric rail_fast ship" speed="16.67" length="8.21" shape="197.46,362.20 199.31,360.65 200.32,359.30 201.34,357.94 203.18,356.39"/>
        <lane id=":4738344318_0_1" index="1" disallow="tram rail_urban rail rail_electric rail_fast ship" speed="16.67" length="8.21" shape="199.26,364.85 201.10,363.30 202.12,361.95 203.14,360.59 204.98,359.04"/>
        <lane id=":4738344318_0_2" index="2" disallow="tram rail_urban rail rail_electric rail_fast ship" speed="16.67" length="8.21" shape="201.05,367.50 202.90,365.95 203.92,364.60 204.93,363.24 206.78,361.69"/>
        <lane id=":4738344318_0_3" index="3" disallow="tram rail_urban rail rail_electric rail_fast ship" speed="16.67" length="8.21" shape="201.05,367.50 203.18,366.36 204.82,365.92 206.45,365.47 208.58,364.33"/>
    </edge>
    <edge id=":5159426232_0" function="internal">
        <lane id=":5159426232_0_0" index="0" disallow="tram rail_urban rail rail_electric rail_fast ship" speed="16.67" length="17.78" shape="359.16,242.80 354.73,245.83 351.50,247.61 348.20,249.28 343.54,251.99"/>
        <lane id=":5159426232_0_1" index="1" disallow="tram rail_urban rail rail_electric rail_fast ship" speed="16.67" length="17.78" shape="357.26,240.23 352.88,243.21 349.70,244.96 346.44,246.61 341.84,249.28"/>
        <lane id=":5159426232_0_2" index="2" disallow="tram rail_urban rail rail_electric rail_fast ship" speed="16.67" length="17.78" shape="355.36,237.65 351.04,240.59 347.90,242.32 344.68,243.93 340.15,246.57"/>
        <lane id=":5159426232_0_3" index="3" disallow="tram rail_urban rail rail_electric rail_fast ship" speed="16.67" length="17.78" shape="353.47,235.08 349.20,237.98 346.09,239.67 342.92,241.26 338.45,243.85"/>
    </edge>
    <edge id=":5159426232_4" function="internal">
        <lane id=":5159426232_4_0" index="0" allow="private emergency authority army vip passenger hov taxi bus coach delivery truck trailer motorcycle evehicle custom1 custom2" speed="15.28" length="17.73" shape="353.47,235.08 348.58,237.82 344.28,238.87 340.34,239.04 336.59,239.13"/>
    </edge>
    <edge id=":5226345882_0" function="internal">
        <lane id=":5226345882_0_0" index="0" disallow="tram rail_urban rail rail_electric rail_fast ship" speed="13.89" length="11.38" shape="174.69,224.03 180.89,233.57"/>
    </edge>
    <edge id=":5226345882_1" function="internal">
        <lane id=":5226345882_1_0" index="0" allow="pedestrian delivery bicycle" speed="9.08" length="10.81" shape="174.69,224.03 176.23,226.91 177.03,229.58 177.10,232.02 176.43,234.24"/>
        <lane id=":5226345882_1_1" index="1" allow="pedestrian delivery bicycle" speed="7.27" length="10.92" shape="174.69,224.03 175.84,226.64 175.88,229.10 174.79,231.39 172.57,233.52"/>
    </edge>
    <edge id=":567938807_0" function="internal">
        <lane id=":567938807_0_0" index="0" allow="private emergency authority army vip passenger hov taxi bus coach delivery truck trailer motorcycle evehicle custom1 custom2" speed="13.89" length="14.03" shape="373.53,305.10 370.82,302.02 368.55,300.31 365.92,299.04 362.14,297.27"/>
        <lane id=":567938807_0_1" index="1" allow="private emergency authority army vip passenger hov taxi bus coach delivery truck trailer motorcycle evehicle custom1 custom2" speed="13.89" length="15.44" shape="376.05,303.12 373.07,299.72 370.60,297.81 367.73,296.38 363.58,294.42"/>
    </edge>
    <edge id=":567938807_2" function="internal">
        <lane id=":567938807_2_0" index="0" allow="private emergency authority army vip passenger hov taxi bus coach delivery truck trailer motorcycle evehicle custom1 custom2" speed="13.89" length="15.12" shape="376.05,303.12 373.07,299.30 370.91,296.32 369.27,293.58 367.85,290.48"/>
    </edge>
    <edge id=":567938811_0" function="internal">
        <lane id=":567938811_0_0" index="0" disallow="tram rail_urban rail rail_electric rail_fast ship" speed="16.67" length="29.74" shape="356.86,249.33 382.57,234.45"/>
        <lane id=":567938811_0_1" index="1" disallow="tram rail_urban rail rail_electric rail_fast ship" speed="16.67" length="29.74" shape="358.62,252.00 384.39,237.09"/>
    </edge>
    <edge id=":567938811_2" function="internal">
        <lane id=":567938811_2_0" index="0" allow="private emergency authority army vip passenger hov taxi bus coach delivery truck trailer motorcycle evehicle custom1 custom2" speed="15.28" length="29.85" shape="363.88,258.56 366.92,254.14 371.92,248.30 378.04,242.22 384.39,237.09"/>
    </edge>
    <edge id=":567938812_0" function="internal">
        <lane id=":567938812_0_0" index="0" disallow="tram rail_urban rail rail_electric rail_fast ship" speed="16.67" length="8.21" shape="379.09,226.95 377.23,228.48 376.20,229.83 375.17,231.17 373.31,232.70"/>
        <lane id=":567938812_0_1" index="1" disallow="tram rail_urban rail rail_electric rail_fast ship" speed="16.67" length="8.21" shape="377.33,224.28 375.47,225.81 374.43,227.16 373.40,228.50 371.54,230.03"/>
        <lane id=":567938812_0_2" index="2" disallow="tram rail_urban rail rail_electric rail_fast ship" speed="16.67" length="8.21" shape="375.56,221.62 373.70,223.15 372.67,224.49 371.63,225.83 369.77,227.37"/>
        <lane id=":567938812_0_3" index="3" disallow="tram rail_urban rail rail_electric rail_fast ship" speed="16.67" length="8.21" shape="375.56,221.62 373.42,222.73 371.78,223.16 370.14,223.58 368.00,224.70"/>
    </edge>
    <edge id=":567938815_0" function="internal">
        <lane id=":567938815_0_0" index="0" allow="private emergency authority army vip passenger hov taxi bus coach delivery truck trailer motorcycle evehicle custom1 custom2" speed="13.89" length="17.03" shape="298.19,231.93 295.93,228.55 293.43,224.87 290.84,221.25 288.32,218.07"/>
    </edge>
    <edge id=":567938815_1" function="internal">
        <lane id=":567938815_1_0" index="0" allow="private emergency authority army vip passenger hov taxi bus coach delivery truck trailer motorcycle evehicle custom1 custom2" speed="13.89" length="17.12" shape="301.09,229.39 297.76,227.04 294.33,224.16 291.09,221.07 288.32,218.07"/>
    </edge>
    <edge id=":567938816_0" function="internal">
        <lane id=":567938816_0_0" index="0" disallow="tram rail_urban rail rail_electric rail_fast ship" speed="16.67" length="12.83" shape="249.27,325.07 252.20,322.85 254.01,321.07 255.75,319.22 258.51,316.77"/>
        <lane id=":567938816_0_1" index="1" disallow="tram rail_urban rail rail_electric rail_fast ship" speed="16.67" length="12.83" shape="251.07,327.71 254.07,325.45 255.91,323.64 257.70,321.76 260.52,319.26"/>
        <lane id=":567938816_0_2" index="2" disallow="tram rail_urban rail rail_electric rail_fast ship" speed="16.67" length="12.83" shape="252.87,330.36 255.93,328.05 257.82,326.22 259.65,324.30 262.53,321.75"/>
        <lane id=":567938816_0_3" index="3" disallow="tram rail_urban rail rail_electric rail_fast ship" speed="16.67" length="12.83" shape="254.67,333.01 257.79,330.66 259.72,328.79 261.60,326.84 264.54,324.25"/>
    </edge>
    <edge id=":567938816_4" function="internal">
        <lane id=":567938816_4_0" index="0" allow="private emergency authority army vip passenger hov taxi bus coach delivery truck trailer motorcycle evehicle custom1 custom2" speed="15.28" length="12.91" shape="254.67,333.01 258.08,330.95 260.81,329.86 263.49,329.30 266.71,328.83"/>
    </edge>
    <edge id=":567938819_0" function="internal">
        <lane id=":567938819_0_0" index="0" allow="private emergency authority army vip passenger hov taxi bus coach delivery truck trailer motorcycle evehicle custom1 custom2" speed="13.89" length="24.66" shape="313.25,330.78 317.04,336.23 320.19,340.83 323.61,345.19 328.25,349.87"/>
        <lane id=":567938819_0_1" index="1" allow="private emergency authority army vip passenger hov taxi bus coach delivery truck trailer motorcycle evehicle custom1 custom2" speed="13.89" length="24.66" shape="310.67,332.67 314.53,338.19 317.82,342.96 321.39,347.48 326.10,352.24"/>
    </edge>
    <edge id=":567938819_2" function="internal">
        <lane id=":567938819_2_0" index="0" allow="private emergency authority army vip passenger hov taxi bus coach delivery truck trailer motorcycle evehicle custom1 custom2" speed="13.89" length="26.63" shape="306.12,334.70 310.07,337.46 315.00,341.81 320.48,346.99 326.10,352.24"/>
    </edge>
    <edge id=":567938820_0" function="internal">
        <lane id=":567938820_0_0" index="0" allow="private emergency authority army vip passenger hov taxi bus coach delivery truck trailer motorcycle evehicle custom1 custom2" speed="13.89" length="8.85" shape="233.26,250.69 234.74,252.83 235.98,254.13 237.39,255.28 239.37,257.02"/>
    </edge>
    <edge id=":567938820_1" function="internal">
        <lane id=":567938820_1_0" index="0" allow="private emergency authority army vip passenger hov taxi bus coach delivery truck trailer motorcycle evehicle custom1 custom2" speed="13.89" length="9.21" shape="230.54,252.39 232.18,254.56 233.58,255.82 234.98,257.10 236.60,259.27"/>
    </edge>
    <edge id=":567938823_0" function="internal">
        <lane id=":567938823_0_0" index="0" disallow="tram rail_urban rail rail_electric rail_fast ship" speed="16.67" length="18.02" shape="247.15,317.63 232.54,328.50"/>
        <lane id=":567938823_0_1" index="1" disallow="tram rail_urban rail rail_electric rail_fast ship" speed="16.67" length="18.02" shape="245.26,315.05 230.81,325.81"/>
        <lane id=":567938823_0_2" index="2" disallow="tram rail_urban rail rail_electric rail_fast ship" speed="16.67" length="18.02" shape="243.37,312.46 229.07,323.13"/>
    </edge>
    <edge id=":567938823_3" function="internal">
        <lane id=":567938823_3_0" index="0" allow="private emergency authority army vip passenger hov taxi bus coach delivery truck trailer motorcycle evehicle custom1 custom2" speed="15.28" length="18.60" shape="239.98,309.30 238.53,312.94 237.36,317.22 235.21,321.66 230.81,325.81"/>
        <lane id=":567938823_3_1" index="1" allow="private emergency authority army vip passenger hov taxi bus coach delivery truck trailer motorcycle evehicle custom1 custom2" speed="15.28" length="18.60" shape="239.98,309.30 238.19,312.57 236.29,316.00 233.52,319.54 229.07,323.13"/>
    </edge>
    <edge id=":567938958_0" function="internal">
        <lane id=":567938958_0_0" index="0" allow="private emergency authority army vip passenger hov taxi bus coach delivery truck trailer motorcycle evehicle custom1 custom2" speed="25.00" length="8.14" shape="271.44,235.90 269.67,234.21 268.20,233.31 266.74,232.39 265.03,230.65"/>
        <lane id=":567938958_0_1" index="1" allow="private emergency authority army vip passenger hov taxi bus coach delivery truck trailer motorcycle evehicle custom1 custom2" speed="25.00" length="8.14" shape="273.88,233.82 272.12,232.15 270.66,231.27 269.23,230.37 267.53,228.65"/>
        <lane id=":567938958_0_2" index="2" allow="private emergency authority army vip passenger hov taxi bus coach delivery truck trailer motorcycle evehicle custom1 custom2" speed="25.00" length="8.14" shape="276.31,231.74 274.57,230.09 273.13,229.23 271.71,228.35 270.03,226.66"/>
        <lane id=":567938958_0_3" index="3" allow="private emergency authority army vip passenger hov taxi bus coach delivery truck trailer motorcycle evehicle custom1 custom2" speed="25.00" length="8.14" shape="278.74,229.66 277.03,228.04 275.60,227.19 274.19,226.33 272.53,224.66"/>
        <lane id=":567938958_0_4" index="4" allow="private emergency authority army vip passenger hov taxi bus coach delivery truck trailer motorcycle evehicle custom1 custom2" speed="25.00" length="8.14" shape="278.74,229.66 277.42,227.73 276.85,226.19 276.29,224.64 275.03,222.66"/>
    </edge>
    <edge id=":5995442978_0" function="internal">
        <lane id=":5995442978_0_0" index="0" allow="private emergency authority army vip passenger hov taxi bus coach delivery truck trailer motorcycle evehicle custom1 custom2" speed="13.89" length="8.04" shape="209.38,215.97 210.96,217.76 212.31,218.75 213.62,219.77 215.08,221.63"/>
        <lane id=":5995442978_0_1" index="1" allow="private emergency authority army vip passenger hov taxi bus coach delivery truck trailer motorcycle evehicle custom1 custom2" speed="13.89" length="8.04" shape="209.38,215.97 210.52,218.01 210.95,219.60 211.34,221.21 212.37,223.33"/>
    </edge>
    <edge id=":5995506703_0" function="internal">
        <lane id=":5995506703_0_0" index="0" allow="private emergency authority army vip passenger hov taxi bus coach delivery truck trailer motorcycle evehicle custom1 custom2" speed="13.89" length="7.90" shape="355.11,378.55 356.99,379.92 358.49,380.58 359.96,381.27 361.72,382.76"/>
    </edge>
    <edge id=":8657806174_0" function="internal">
        <lane id=":8657806174_0_0" index="0" allow="pedestrian delivery bicycle" speed="3.65" length="4.67" shape="252.22,474.02 252.10,475.46 251.60,476.20 250.71,476.24 249.42,475.58"/>
    </edge>
    <edge id=":8657806177_0" function="internal">
        <lane id=":8657806177_0_0" index="0" allow="pedestrian delivery bicycle" speed="6.68" length="11.91" shape="177.97,388.58 175.58,386.12 174.84,383.71 175.73,381.35 178.28,379.05"/>
        <lane id=":8657806177_0_1" index="1" allow="pedestrian delivery bicycle" speed="5.84" length="8.77" shape="177.97,388.58 176.69,387.06 176.62,385.40 177.74,383.62 180.07,381.70"/>
    </edge>
    <edge id=":8657806177_2" function="internal">
        <lane id=":8657806177_2_0" index="0" allow="pedestrian delivery bicycle" speed="3.65" length="4.67" shape="177.97,388.58 177.51,387.21 177.69,386.33 178.49,385.95 179.93,386.05"/>
    </edge>
    <edge id=":8657806177_3" function="internal">
        <lane id=":8657806177_3_0" index="0" disallow="tram rail_urban rail rail_electric rail_fast ship" speed="16.67" length="9.74" shape="168.42,381.86 176.48,376.40"/>
        <lane id=":8657806177_3_1" index="1" disallow="tram rail_urban rail rail_electric rail_fast ship" speed="16.67" length="9.74" shape="170.21,384.51 178.28,379.05"/>
        <lane id=":8657806177_3_2" index="2" disallow="tram rail_urban rail rail_electric rail_fast ship" speed="16.67" length="9.74" shape="172.01,387.16 180.07,381.70"/>
    </edge>
    <edge id=":8657806177_6" function="internal">
        <lane id=":8657806177_6_0" index="0" allow="pedestrian delivery bicycle" speed="7.20" length="8.55" shape="172.01,387.16 174.37,385.82 176.48,385.19 178.34,385.27 179.93,386.05"/>
    </edge>
    <edge id=":cluster_1301909257_1301909323_4738344319_4738344320_#4more_0" function="internal">
        <lane id=":cluster_1301909257_1301909323_4738344319_4738344320_#4more_0_0" index="0" allow="private emergency authority army vip passenger hov taxi bus coach delivery truck trailer motorcycle evehicle custom1 custom2" speed="10.45" length="25.97" shape="323.51,287.63 315.30,288.44 309.53,290.97 306.20,295.21 305.31,301.17"/>
    </edge>
    <edge id=":cluster_1301909257_1301909323_4738344319_4738344320_#4more_1" function="internal">
        <lane id=":cluster_1301909257_1301909323_4738344319_4738344320_#4more_1_0" index="0" allow="private emergency authority army vip passenger hov taxi bus coach delivery truck trailer motorcycle evehicle custom1 custom2" speed="15.28" length="36.99" shape="323.51,287.63 315.54,286.38 306.86,284.34 297.76,283.95 288.55,287.63"/>
        <lane id=":cluster_1301909257_1301909323_4738344319_4738344320_#4more_1_1" index="1" allow="private emergency authority army vip passenger hov taxi bus coach delivery truck trailer motorcycle evehicle custom1 custom2" speed="15.28" length="36.99" shape="323.52,284.43 315.24,283.29 305.86,281.50 296.06,281.34 286.54,285.13"/>
    </edge>
    <edge id=":cluster_1301909257_1301909323_4738344319_4738344320_#4more_3" function="internal">
        <lane id=":cluster_1301909257_1301909323_4738344319_4738344320_#4more_3_0" index="0" allow="private emergency authority army vip passenger hov taxi bus coach delivery truck trailer motorcycle evehicle custom1 custom2" speed="11.57" length="37.49" shape="323.52,284.43 312.54,283.15 305.21,279.20 301.94,272.23 303.15,261.89"/>
    </edge>
    <edge id=":cluster_1301909257_1301909323_4738344319_4738344320_#4more_4" function="internal">
        <lane id=":cluster_1301909257_1301909323_4738344319_4738344320_#4more_4_0" index="0" allow="private emergency authority army vip passenger hov taxi bus coach delivery truck trailer motorcycle evehicle custom1 custom2" speed="5.28" length="9.83" shape="323.52,284.43 320.21,284.12 318.86,283.24 319.49,281.78 322.09,279.74"/>
    </edge>
    <edge id=":cluster_1301909257_1301909323_4738344319_4738344320_#4more_5" function="internal">
        <lane id=":cluster_1301909257_1301909323_4738344319_4738344320_#4more_5_0" index="0" allow="private emergency authority army vip passenger hov taxi bus coach delivery truck trailer motorcycle evehicle custom1 custom2" speed="15.28" length="33.54" shape="315.77,270.71 310.79,275.65 307.38,282.37 305.56,290.88 305.31,301.17"/>
    </edge>
    <edge id=":cluster_1301909257_1301909323_4738344319_4738344320_#4more_6" function="internal">
        <lane id=":cluster_1301909257_1301909323_4738344319_4738344320_#4more_6_0" index="0" disallow="tram rail_urban rail rail_electric rail_fast ship" speed="16.67" length="32.26" shape="315.77,270.71 288.55,287.63"/>
        <lane id=":cluster_1301909257_1301909323_4738344319_4738344320_#4more_6_1" index="1" disallow="tram rail_urban rail rail_electric rail_fast ship" speed="16.67" length="32.26" shape="313.93,268.09 286.54,285.13"/>
        <lane id=":cluster_1301909257_1301909323_4738344319_4738344320_#4more_6_2" index="2" disallow="tram rail_urban rail rail_electric rail_fast ship" speed="16.67" length="32.26" shape="312.10,265.47 284.52,282.63"/>
    </edge>
    <edge id=":cluster_1301909257_1301909323_4738344319_4738344320_#4more_9" function="internal">
        <lane id=":cluster_1301909257_1301909323_4738344319_4738344320_#4more_9_0" index="0" disallow="tram rail_urban rail rail_electric rail_fast ship" speed="7.92" length="15.06" shape="310.26,262.85 319.55,262.64 324.62,265.38"/>
    </edge>
    <edge id=":cluster_1301909257_1301909323_4738344319_4738344320_#4more_10" function="internal">
        <lane id=":cluster_1301909257_1301909323_4738344319_4738344320_#4more_10_0" index="0" allow="private emergency authority army vip passenger hov taxi bus coach delivery truck trailer motorcycle evehicle custom1 custom2" speed="5.78" length="6.18" shape="310.26,262.85 306.32,265.24 304.80,265.63"/>
    </edge>
    <edge id=":cluster_1301909257_1301909323_4738344319_4738344320_#4more_20" function="internal">
        <lane id=":cluster_1301909257_1301909323_4738344319_4738344320_#4more_20_0" index="0" disallow="tram rail_urban rail rail_electric rail_fast ship" speed="7.92" length="15.06" shape="324.62,265.38 325.47,271.08 322.09,279.74"/>
    </edge>
    <edge id=":cluster_1301909257_1301909323_4738344319_4738344320_#4more_21" function="internal">
        <lane id=":cluster_1301909257_1301909323_4738344319_4738344320_#4more_21_0" index="0" allow="private emergency authority army vip passenger hov taxi bus coach delivery truck trailer motorcycle evehicle custom1 custom2" speed="5.78" length="5.45" shape="304.80,265.63 303.82,265.88 302.76,264.76 303.15,261.89"/>
    </edge>
    <edge id=":cluster_1301909257_1301909323_4738344319_4738344320_#4more_11" function="internal">
        <lane id=":cluster_1301909257_1301909323_4738344319_4738344320_#4more_11_0" index="0" allow="private emergency authority army vip passenger hov taxi bus coach delivery truck trailer motorcycle evehicle custom1 custom2" speed="15.28" length="35.54" shape="283.70,277.41 289.46,278.04 298.21,278.95 308.38,278.37 318.42,274.50"/>
    </edge>
    <edge id=":cluster_1301909257_1301909323_4738344319_4738344320_#4more_12" function="internal">
        <lane id=":cluster_1301909257_1301909323_4738344319_4738344320_#4more_12_0" index="0" allow="private emergency authority army vip passenger hov taxi bus coach delivery truck trailer motorcycle evehicle custom1 custom2" speed="12.09" length="33.25" shape="283.70,277.41 291.31,278.66 296.91,282.93 300.49,290.20 302.07,300.48"/>
    </edge>
    <edge id=":cluster_1301909257_1301909323_4738344319_4738344320_#4more_13" function="internal">
        <lane id=":cluster_1301909257_1301909323_4738344319_4738344320_#4more_13_0" index="0" allow="private emergency authority army vip passenger hov taxi bus coach delivery truck trailer motorcycle evehicle custom1 custom2" speed="5.41" length="10.33" shape="283.70,277.41 286.94,277.64 288.16,278.59 287.35,280.26 284.52,282.63"/>
    </edge>
    <edge id=":cluster_1301909257_1301909323_4738344319_4738344320_#4more_14" function="internal">
        <lane id=":cluster_1301909257_1301909323_4738344319_4738344320_#4more_14_0" index="0" allow="private emergency authority army vip passenger hov taxi bus coach delivery truck trailer motorcycle evehicle custom1 custom2" speed="15.28" length="32.06" shape="290.96,290.61 297.79,282.67 301.08,274.38 302.35,267.02 303.15,261.89"/>
    </edge>
    <edge id=":cluster_1301909257_1301909323_4738344319_4738344320_#4more_15" function="internal">
        <lane id=":cluster_1301909257_1301909323_4738344319_4738344320_#4more_15_0" index="0" disallow="tram rail_urban rail rail_electric rail_fast ship" speed="16.67" length="31.70" shape="290.96,290.61 298.71,285.03 304.61,281.86 310.56,279.05 318.42,274.50"/>
        <lane id=":cluster_1301909257_1301909323_4738344319_4738344320_#4more_15_1" index="1" disallow="tram rail_urban rail rail_electric rail_fast ship" speed="16.67" length="31.70" shape="292.97,293.10 300.65,287.57 306.50,284.45 312.41,281.66 320.26,277.12"/>
        <lane id=":cluster_1301909257_1301909323_4738344319_4738344320_#4more_15_2" index="2" disallow="tram rail_urban rail rail_electric rail_fast ship" speed="16.67" length="31.70" shape="294.97,295.60 302.60,290.11 308.40,287.03 314.26,284.27 322.09,279.74"/>
    </edge>
    <edge id=":cluster_1301909257_1301909323_4738344319_4738344320_#4more_18" function="internal">
        <lane id=":cluster_1301909257_1301909323_4738344319_4738344320_#4more_18_0" index="0" disallow="tram rail_urban rail rail_electric rail_fast ship" speed="7.81" length="14.49" shape="296.98,298.09 288.07,298.90 283.03,296.59"/>
    </edge>
    <edge id=":cluster_1301909257_1301909323_4738344319_4738344320_#4more_19" function="internal">
        <lane id=":cluster_1301909257_1301909323_4738344319_4738344320_#4more_19_0" index="0" allow="private emergency authority army vip passenger hov taxi bus coach delivery truck trailer motorcycle evehicle custom1 custom2" speed="5.24" length="8.14" shape="296.98,298.09 299.09,296.79 300.65,296.76 301.64,297.98 302.07,300.48"/>
    </edge>
    <edge id=":cluster_1301909257_1301909323_4738344319_4738344320_#4more_22" function="internal">
        <lane id=":cluster_1301909257_1301909323_4738344319_4738344320_#4more_22_0" index="0" disallow="tram rail_urban rail rail_electric rail_fast ship" speed="7.81" length="14.49" shape="283.03,296.59 281.84,291.17 284.52,282.63"/>
    </edge>
    <edge id=":cluster_5234807909_5234807910_6806094326_6806094327_#4more_0" function="internal">
        <lane id=":cluster_5234807909_5234807910_6806094326_6806094327_#4more_0_0" index="0" disallow="tram rail_urban rail rail_electric rail_fast ship" speed="4.06" length="3.06" shape="178.35,222.02 178.10,223.89 177.39,224.82"/>
    </edge>
    <edge id=":cluster_5234807909_5234807910_6806094326_6806094327_#4more_1" function="internal">
        <lane id=":cluster_5234807909_5234807910_6806094326_6806094327_#4more_1_0" index="0" disallow="tram rail_urban rail rail_electric rail_fast ship" speed="11.19" length="26.99" shape="178.35,222.02 171.76,214.36 166.02,209.56 161.13,207.62 157.09,208.55"/>
    </edge>