<?xml version="1.0" encoding="UTF-8"?>

<!-- generated on 2023-07-19 15:04:48 by Eclipse SUMO netconvert Version 1.17.0
<configuration xmlns:xsi="http://www.w3.org/2001/XMLSchema-instance" xsi:noNamespaceSchemaLocation="http://sumo.dlr.de/xsd/netconvertConfiguration.xsd">

    <input>
        <sumo-net-file value="osm.net.xml.gz"/>
    </input>

    <output>
        <output-file value="osm.net.xml"/>
        <output.street-names value="true"/>
    </output>

    <processing>
        <geometry.min-radius.fix.railways value="false"/>
        <geometry.max-grade.fix value="false"/>
        <offset.disable-normalization value="true"/>
        <lefthand value="0"/>
    </processing>

    <junctions>
        <no-turnarounds value="true"/>
        <junctions.corner-detail value="5"/>
        <junctions.limit-turn-speed value="5.50"/>
        <rectangular-lane-cut value="0"/>
    </junctions>

    <pedestrian>
        <walkingareas value="0"/>
    </pedestrian>

</configuration>
-->

<net version="1.16" junctionCornerDetail="5" limitTurnSpeed="5.50" xmlns:xsi="http://www.w3.org/2001/XMLSchema-instance" xsi:noNamespaceSchemaLocation="http://sumo.dlr.de/xsd/net_file.xsd">

    <location netOffset="-361912.54,-153458.14" convBoundary="0.00,0.00,1937.24,1568.53" origBoundary="103.758778,1.388062,103.776187,1.402249" projParameter="+proj=utm +zone=48 +ellps=WGS84 +datum=WGS84 +units=m +no_defs"/>

    <type id="highway.bridleway" priority="1" numLanes="1" speed="2.78" allow="pedestrian" oneway="1" width="2.00"/>
    <type id="highway.bus_guideway" priority="1" numLanes="1" speed="27.78" allow="bus" oneway="1"/>
    <type id="highway.cycleway" priority="1" numLanes="1" speed="5.56" allow="bicycle" oneway="0" width="1.00"/>
    <type id="highway.footway" priority="1" numLanes="1" speed="2.78" allow="pedestrian" oneway="1" width="2.00"/>
    <type id="highway.ford" priority="1" numLanes="1" speed="2.78" allow="army" oneway="0"/>
    <type id="highway.living_street" priority="2" numLanes="1" speed="2.78" disallow="tram rail_urban rail rail_electric rail_fast ship" oneway="0"/>
    <type id="highway.motorway" priority="14" numLanes="2" speed="39.44" allow="private emergency authority army vip passenger hov taxi bus coach delivery truck trailer motorcycle evehicle custom1 custom2" oneway="1"/>
    <type id="highway.motorway_link" priority="9" numLanes="1" speed="22.22" allow="private emergency authority army vip passenger hov taxi bus coach delivery truck trailer motorcycle evehicle custom1 custom2" oneway="1"/>
    <type id="highway.path" priority="1" numLanes="1" speed="5.56" allow="pedestrian bicycle" oneway="0" width="2.00"/>
    <type id="highway.pedestrian" priority="1" numLanes="1" speed="2.78" allow="pedestrian" oneway="1" width="2.00"/>
    <type id="highway.primary" priority="12" numLanes="2" speed="27.78" disallow="tram rail_urban rail rail_electric rail_fast ship" oneway="0"/>
    <type id="highway.primary_link" priority="7" numLanes="1" speed="22.22" disallow="tram rail_urban rail rail_electric rail_fast ship" oneway="0"/>
    <type id="highway.raceway" priority="15" numLanes="2" speed="83.33" allow="vip" oneway="0"/>
    <type id="highway.residential" priority="3" numLanes="1" speed="13.89" disallow="tram rail_urban rail rail_electric rail_fast ship" oneway="0"/>
    <type id="highway.secondary" priority="11" numLanes="1" speed="27.78" disallow="tram rail_urban rail rail_electric rail_fast ship" oneway="0"/>
    <type id="highway.secondary_link" priority="6" numLanes="1" speed="22.22" disallow="tram rail_urban rail rail_electric rail_fast ship" oneway="0"/>
    <type id="highway.service" priority="1" numLanes="1" speed="5.56" allow="pedestrian delivery bicycle" oneway="0"/>
    <type id="highway.stairs" priority="1" numLanes="1" speed="1.39" allow="pedestrian" oneway="1" width="2.00"/>
    <type id="highway.step" priority="1" numLanes="1" speed="1.39" allow="pedestrian" oneway="1" width="2.00"/>
    <type id="highway.steps" priority="1" numLanes="1" speed="1.39" allow="pedestrian" oneway="1" width="2.00"/>
    <type id="highway.tertiary" priority="10" numLanes="1" speed="22.22" disallow="tram rail_urban rail rail_electric rail_fast ship" oneway="0"/>
    <type id="highway.tertiary_link" priority="5" numLanes="1" speed="22.22" disallow="tram rail_urban rail rail_electric rail_fast ship" oneway="0"/>
    <type id="highway.track" priority="1" numLanes="1" speed="5.56" allow="pedestrian motorcycle moped bicycle" oneway="0"/>
    <type id="highway.trunk" priority="13" numLanes="2" speed="27.78" disallow="pedestrian bicycle tram rail_urban rail rail_electric rail_fast ship" oneway="0"/>
    <type id="highway.trunk_link" priority="8" numLanes="1" speed="22.22" disallow="pedestrian bicycle tram rail_urban rail rail_electric rail_fast ship" oneway="0"/>
    <type id="highway.unclassified" priority="4" numLanes="1" speed="13.89" disallow="tram rail_urban rail rail_electric rail_fast ship" oneway="0"/>
    <type id="highway.unsurfaced" priority="1" numLanes="1" speed="8.33" disallow="tram rail_urban rail rail_electric rail_fast ship" oneway="0"/>
    <type id="railway.highspeed" priority="21" numLanes="1" speed="69.44" allow="rail_fast" oneway="1"/>
    <type id="railway.light_rail" priority="19" numLanes="1" speed="27.78" allow="rail_urban" oneway="1"/>
    <type id="railway.preserved" priority="16" numLanes="1" speed="27.78" allow="rail" oneway="1"/>
    <type id="railway.rail" priority="20" numLanes="1" speed="44.44" allow="rail" oneway="1"/>
    <type id="railway.subway" priority="18" numLanes="1" speed="27.78" allow="rail_urban" oneway="1"/>
    <type id="railway.tram" priority="17" numLanes="1" speed="13.89" allow="tram" oneway="1"/>

    <edge id=":158003373_0" function="internal">
        <lane id=":158003373_0_0" index="0" allow="private emergency authority army vip passenger hov taxi bus coach delivery truck trailer motorcycle evehicle custom1 custom2" speed="19.45" length="2.30" shape="1754.29,240.29 1755.99,238.52"/>
        <lane id=":158003373_0_1" index="1" allow="private emergency authority army vip passenger hov taxi bus coach delivery truck trailer motorcycle evehicle custom1 custom2" speed="19.45" length="2.30" shape="1757.49,240.25 1759.16,238.91"/>
    </edge>
    <edge id=":158003373_2" function="internal">
        <lane id=":158003373_2_0" index="0" allow="private emergency authority army vip passenger hov taxi bus coach delivery truck trailer motorcycle evehicle custom1 custom2" speed="25.00" length="2.63" shape="1746.26,240.39 1746.46,237.33"/>
        <lane id=":158003373_2_1" index="1" allow="private emergency authority army vip passenger hov taxi bus coach delivery truck trailer motorcycle evehicle custom1 custom2" speed="25.00" length="2.63" shape="1749.47,240.35 1749.64,237.73"/>
        <lane id=":158003373_2_2" index="2" allow="private emergency authority army vip passenger hov taxi bus coach delivery truck trailer motorcycle evehicle custom1 custom2" speed="25.00" length="2.63" shape="1752.67,240.31 1752.81,238.12"/>
    </edge>
    <edge id=":158014654_0" function="internal">
        <lane id=":158014654_0_0" index="0" allow="private emergency authority army vip passenger hov taxi bus coach delivery truck trailer motorcycle evehicle custom1 custom2" speed="25.00" length="67.88" shape="1694.11,611.57 1688.30,679.16"/>
        <lane id=":158014654_0_1" index="1" allow="private emergency authority army vip passenger hov taxi bus coach delivery truck trailer motorcycle evehicle custom1 custom2" speed="25.00" length="67.88" shape="1690.92,611.30 1685.11,678.93"/>
        <lane id=":158014654_0_2" index="2" allow="private emergency authority army vip passenger hov taxi bus coach delivery truck trailer motorcycle evehicle custom1 custom2" speed="25.00" length="67.88" shape="1687.73,611.02 1681.92,678.71"/>
    </edge>
    <edge id=":158014654_3" function="internal">
        <lane id=":158014654_3_0" index="0" allow="private emergency authority army vip passenger hov taxi bus coach delivery truck trailer motorcycle evehicle custom1 custom2" speed="19.45" length="67.86" shape="1684.47,610.82 1678.73,678.49"/>
        <lane id=":158014654_3_1" index="1" allow="private emergency authority army vip passenger hov taxi bus coach delivery truck trailer motorcycle evehicle custom1 custom2" speed="19.45" length="67.86" shape="1681.27,610.70 1675.54,678.26"/>
    </edge>
    <edge id=":158043131_0" function="internal">
        <lane id=":158043131_0_0" index="0" allow="private emergency authority army vip passenger hov taxi bus coach delivery truck trailer motorcycle evehicle custom1 custom2" speed="13.89" length="7.99" shape="1787.02,240.77 1784.69,240.86 1783.12,241.33 1781.54,241.85 1779.20,242.10"/>
    </edge>
    <edge id=":158043151_0" function="internal">
        <lane id=":158043151_0_0" index="0" allow="private emergency authority army vip passenger hov taxi bus coach delivery truck trailer motorcycle evehicle custom1 custom2" speed="19.45" length="8.21" shape="1720.58,243.68 1718.19,244.01 1716.61,244.62 1715.02,245.22 1712.63,245.55"/>
        <lane id=":158043151_0_1" index="1" allow="private emergency authority army vip passenger hov taxi bus coach delivery truck trailer motorcycle evehicle custom1 custom2" speed="19.45" length="8.21" shape="1720.58,243.68 1718.17,243.51 1716.55,243.02 1714.93,242.52 1712.53,242.35"/>
    </edge>
    <edge id=":158052654_0" function="internal">
        <lane id=":158052654_0_0" index="0" allow="private emergency authority army vip passenger hov taxi bus coach delivery truck trailer motorcycle evehicle custom1 custom2" speed="25.00" length="8.65" shape="1336.85,272.59 1339.24,271.89 1340.69,270.67 1342.13,269.50 1344.53,268.90"/>
        <lane id=":158052654_0_1" index="1" allow="private emergency authority army vip passenger hov taxi bus coach delivery truck trailer motorcycle evehicle custom1 custom2" speed="25.00" length="8.65" shape="1337.12,275.78 1339.48,275.08 1340.89,273.87 1342.31,272.69 1344.67,272.09"/>
    </edge>
    <edge id=":158052803_0" function="internal">
        <lane id=":158052803_0_0" index="0" allow="private emergency authority army vip passenger hov taxi bus coach delivery truck trailer motorcycle evehicle custom1 custom2" speed="19.45" length="0.28" shape="1717.97,255.59 1718.29,255.58"/>
        <lane id=":158052803_0_1" index="1" allow="private emergency authority army vip passenger hov taxi bus coach delivery truck trailer motorcycle evehicle custom1 custom2" speed="19.45" length="0.28" shape="1718.08,258.78 1718.34,258.78"/>
    </edge>
    <edge id=":158067194_0" function="internal">
        <lane id=":158067194_0_0" index="0" allow="private emergency authority army vip passenger hov taxi bus coach delivery truck trailer motorcycle evehicle custom1 custom2" speed="18.05" length="0.30" shape="1339.85,245.62 1339.55,245.64"/>
    </edge>
    <edge id=":478876321-AddedOnRampNode_0" function="internal">
        <lane id=":478876321-AddedOnRampNode_0_0" index="0" allow="private emergency authority army vip passenger hov taxi bus coach delivery truck trailer motorcycle evehicle custom1 custom2" speed="25.00" length="8.00" shape="1678.43,774.69 1677.93,782.67"/>
        <lane id=":478876321-AddedOnRampNode_0_1" index="1" allow="private emergency authority army vip passenger hov taxi bus coach delivery truck trailer motorcycle evehicle custom1 custom2" speed="25.00" length="8.00" shape="1675.24,774.47 1674.74,782.45"/>
        <lane id=":478876321-AddedOnRampNode_0_2" index="2" allow="private emergency authority army vip passenger hov taxi bus coach delivery truck trailer motorcycle evehicle custom1 custom2" speed="25.00" length="8.00" shape="1672.05,774.25 1671.54,782.23"/>
        <lane id=":478876321-AddedOnRampNode_0_3" index="3" allow="private emergency authority army vip passenger hov taxi bus coach delivery truck trailer motorcycle evehicle custom1 custom2" speed="25.00" length="8.00" shape="1668.85,774.02 1668.35,782.01"/>
    </edge>
    <edge id=":5971965758_0" function="internal">
        <lane id=":5971965758_0_0" index="0" allow="private emergency authority army vip passenger hov taxi bus coach delivery truck trailer motorcycle evehicle custom1 custom2" speed="25.00" length="8.20" shape="1573.83,248.93 1571.45,249.22 1569.86,249.80 1568.28,250.38 1565.90,250.69"/>
        <lane id=":5971965758_0_1" index="1" allow="private emergency authority army vip passenger hov taxi bus coach delivery truck trailer motorcycle evehicle custom1 custom2" speed="25.00" length="8.20" shape="1573.83,248.93 1571.43,248.72 1569.82,248.20 1568.21,247.68 1565.81,247.49"/>
        <lane id=":5971965758_0_2" index="2" allow="private emergency authority army vip passenger hov taxi bus coach delivery truck trailer motorcycle evehicle custom1 custom2" speed="25.00" length="8.20" shape="1573.78,245.73 1571.37,245.52 1569.76,245.00 1568.14,244.48 1565.73,244.30"/>
    </edge>
    <edge id=":6076115189_0" function="internal">
        <lane id=":6076115189_0_0" index="0" allow="private emergency authority army vip passenger hov taxi bus coach delivery truck trailer motorcycle evehicle custom1 custom2" speed="18.05" length="8.20" shape="1422.47,284.78 1424.83,284.29 1426.37,283.59 1427.92,282.90 1430.29,282.45"/>
        <lane id=":6076115189_0_1" index="1" allow="private emergency authority army vip passenger hov taxi bus coach delivery truck trailer motorcycle evehicle custom1 custom2" speed="18.05" length="8.20" shape="1422.47,284.78 1424.87,284.79 1426.51,285.18 1428.15,285.59 1430.55,285.64"/>
    </edge>
    <edge id=":6600201348_0" function="internal">
        <lane id=":6600201348_0_0" index="0" allow="private emergency authority army vip passenger hov taxi bus coach delivery truck trailer motorcycle evehicle custom1 custom2" speed="22.22" length="3.04" shape="1091.22,315.29 1094.25,315.06"/>
    </edge>
    <edge id=":6600201348_1" function="internal">
        <lane id=":6600201348_1_0" index="0" allow="private emergency authority army vip passenger hov taxi bus coach delivery truck trailer motorcycle evehicle custom1 custom2" speed="22.22" length="2.82" shape="1091.73,318.52 1094.54,318.25"/>
    </edge>
    <edge id=":6605064339_0" function="internal">
        <lane id=":6605064339_0_0" index="0" allow="private emergency authority army vip passenger hov taxi bus coach delivery truck trailer motorcycle evehicle custom1 custom2" speed="25.00" length="45.36" shape="1257.51,267.46 1212.75,272.92"/>
        <lane id=":6605064339_0_1" index="1" allow="private emergency authority army vip passenger hov taxi bus coach delivery truck trailer motorcycle evehicle custom1 custom2" speed="25.00" length="45.36" shape="1257.30,264.27 1212.36,269.74"/>
        <lane id=":6605064339_0_2" index="2" allow="private emergency authority army vip passenger hov taxi bus coach delivery truck trailer motorcycle evehicle custom1 custom2" speed="25.00" length="45.36" shape="1257.09,261.07 1211.96,266.57"/>
        <lane id=":6605064339_0_3" index="3" allow="private emergency authority army vip passenger hov taxi bus coach delivery truck trailer motorcycle evehicle custom1 custom2" speed="25.00" length="45.36" shape="1256.87,257.88 1211.57,263.39"/>
    </edge>
    <edge id=":6605064339_4" function="internal">
        <lane id=":6605064339_4_0" index="0" allow="private emergency authority army vip passenger hov taxi bus coach delivery truck trailer motorcycle evehicle custom1 custom2" speed="23.61" length="45.62" shape="1256.66,254.69 1211.35,260.03"/>
    </edge>
    <edge id=":6751676174_0" function="internal">
        <lane id=":6751676174_0_0" index="0" allow="private emergency authority army vip passenger hov taxi bus coach delivery truck trailer motorcycle evehicle custom1 custom2" speed="25.00" length="0.30" shape="1423.67,265.59 1423.98,265.58"/>
        <lane id=":6751676174_0_1" index="1" allow="private emergency authority army vip passenger hov taxi bus coach delivery truck trailer motorcycle evehicle custom1 custom2" speed="25.00" length="0.30" shape="1423.81,268.78 1424.09,268.77"/>
    </edge>
    <edge id=":702815550#1-AddedOnRampNode_0" function="internal">
        <lane id=":702815550#1-AddedOnRampNode_0_0" index="0" allow="private emergency authority army vip passenger hov taxi bus coach delivery truck trailer motorcycle evehicle custom1 custom2" speed="22.22" length="8.00" shape="1188.68,309.01 1196.63,308.16"/>
    </edge>
    <edge id=":7572124720_0" function="internal">
        <lane id=":7572124720_0_0" index="0" allow="private emergency authority army vip passenger hov taxi bus coach delivery truck trailer motorcycle evehicle custom1 custom2" speed="25.00" length="8.50" shape="1343.57,257.86 1341.05,258.70 1339.70,260.41 1338.34,262.12 1335.82,262.98"/>
        <lane id=":7572124720_0_1" index="1" allow="private emergency authority army vip passenger hov taxi bus coach delivery truck trailer motorcycle evehicle custom1 custom2" speed="25.00" length="8.50" shape="1343.57,257.86 1341.20,258.20 1339.62,258.81 1338.05,259.43 1335.68,259.79"/>
        <lane id=":7572124720_0_2" index="2" allow="private emergency authority army vip passenger hov taxi bus coach delivery truck trailer motorcycle evehicle custom1 custom2" speed="25.00" length="8.50" shape="1343.57,257.86 1341.17,257.70 1339.55,257.21 1337.93,256.73 1335.53,256.59"/>
        <lane id=":7572124720_0_3" index="3" allow="private emergency authority army vip passenger hov taxi bus coach delivery truck trailer motorcycle evehicle custom1 custom2" speed="25.00" length="8.50" shape="1343.46,254.67 1341.05,254.50 1339.42,254.02 1337.80,253.54 1335.39,253.39"/>
        <lane id=":7572124720_0_4" index="4" allow="private emergency authority army vip passenger hov taxi bus coach delivery truck trailer motorcycle evehicle custom1 custom2" speed="25.00" length="8.50" shape="1343.34,251.47 1340.92,251.31 1339.29,250.82 1337.66,250.34 1335.24,250.20"/>
    </edge>

    <edge id="115843656" from="158015939" to="158014654" name="Bukit Timah Expressway" priority="14" type="highway.motorway" spreadType="center" shape="1738.50,216.83 1729.44,287.22 1723.86,339.86 1705.05,489.33 1693.50,581.28 1685.11,678.93">
        <lane id="115843656_0" index="0" allow="private emergency authority army vip passenger hov taxi bus coach delivery truck trailer motorcycle evehicle custom1 custom2" speed="25.00" length="397.36" shape="1741.67,217.24 1732.62,287.59 1727.04,340.23 1708.22,489.73 1696.68,581.62 1694.11,611.57">
            <param key="origId" value="115843656 115843657"/>
        </lane>
        <lane id="115843656_1" index="1" allow="private emergency authority army vip passenger hov taxi bus coach delivery truck trailer motorcycle evehicle custom1 custom2" speed="25.00" length="397.36" shape="1738.50,216.83 1729.44,287.22 1723.86,339.86 1705.05,489.33 1693.50,581.28 1690.92,611.30">
            <param key="origId" value="115843656 115843657"/>
        </lane>
        <lane id="115843656_2" index="2" allow="private emergency authority army vip passenger hov taxi bus coach delivery truck trailer motorcycle evehicle custom1 custom2" speed="25.00" length="397.36" shape="1735.33,216.42 1726.26,286.85 1720.68,339.49 1701.88,488.93 1690.32,580.94 1687.73,611.02">
            <param key="origId" value="115843656 115843657"/>
        </lane>
        <param key="ref" value="BKE"/>
    </edge>
    <edge id="15772713" from="158046300" to="158043131" priority="9" type="highway.motorway_link" spreadType="center" shape="1696.92,936.82 1701.62,924.94 1703.36,917.42 1706.14,871.48 1717.34,744.50 1724.04,705.64 1728.62,681.04 1742.26,649.21 1766.16,619.35 1798.31,592.33 1819.42,575.66 1872.61,535.51 1900.02,508.62 1915.53,485.64 1926.71,461.18 1931.40,445.39 1934.61,429.46 1936.76,414.11 1937.24,398.64 1933.82,369.43 1926.27,345.27 1918.51,328.75 1908.96,312.35 1889.48,289.33 1868.91,271.53 1854.83,262.37 1839.29,254.91 1825.50,249.50 1811.93,245.57 1797.45,243.13 1783.06,242.09">
        <lane id="15772713_0" index="0" allow="private emergency authority army vip passenger hov taxi bus coach delivery truck trailer motorcycle evehicle custom1 custom2" speed="13.89" length="821.91" shape="1702.92,898.13 1704.54,871.36 1715.75,744.29 1722.47,705.36 1727.08,680.57 1740.87,648.38 1765.01,618.23 1797.30,591.09 1818.44,574.39 1871.56,534.30 1898.78,507.59 1914.13,484.85 1925.21,460.62 1929.85,445.00 1933.03,429.19 1935.16,413.97 1935.64,398.71 1932.25,369.76 1924.78,345.85 1917.09,329.49 1907.65,313.28 1888.34,290.46 1867.95,272.81 1854.04,263.77 1838.65,256.38 1824.98,251.02 1811.57,247.13 1797.26,244.72 1786.79,243.96">
            <param key="origId" value="15772713"/>
        </lane>
        <lane id="15772713_1" index="1" allow="private emergency authority army vip passenger hov taxi bus coach delivery truck trailer motorcycle evehicle custom1 custom2" speed="13.89" length="821.91" shape="1706.06,899.34 1707.74,871.60 1718.93,744.71 1725.61,705.92 1730.16,681.51 1743.65,650.04 1767.31,620.47 1799.32,593.57 1820.40,576.93 1873.66,536.72 1901.26,509.65 1916.93,486.43 1928.21,461.74 1932.95,445.78 1936.19,429.73 1938.36,414.25 1938.84,398.57 1935.39,369.10 1927.76,344.69 1919.93,328.01 1910.27,311.42 1890.62,288.20 1869.87,270.25 1855.62,260.97 1839.93,253.44 1826.02,247.98 1812.29,244.01 1797.64,241.54 1787.02,240.77">
            <param key="origId" value="15772713"/>
        </lane>
    </edge>
    <edge id="15773055" from="6751676174" to="158052803" priority="9" type="highway.motorway_link" spreadType="center" shape="1423.89,267.18 1582.92,261.79 1648.61,259.60 1718.17,257.18">
        <lane id="15773055_0" index="0" allow="private emergency authority army vip passenger hov taxi bus coach delivery truck trailer motorcycle evehicle custom1 custom2" speed="25.00" length="294.16" shape="1423.98,265.58 1582.87,260.19 1648.56,258.00 1717.97,255.59">
            <param key="origId" value="15773055"/>
        </lane>
        <lane id="15773055_1" index="1" allow="private emergency authority army vip passenger hov taxi bus coach delivery truck trailer motorcycle evehicle custom1 custom2" speed="25.00" length="294.16" shape="1424.09,268.77 1582.97,263.39 1648.66,261.20 1718.08,258.78">
            <param key="origId" value="15773055"/>
        </lane>
    </edge>
    <edge id="15773693" from="7572124719" to="158067194" priority="9" type="highway.motorway_link" spreadType="center" shape="1746.28,0.00 1739.43,34.70 1729.56,83.48 1724.11,102.29 1716.98,121.47 1709.95,135.20 1702.75,147.10 1693.32,160.78 1683.28,171.98 1673.55,182.06 1663.13,191.73 1642.53,205.96 1622.60,216.25 1598.77,225.05 1577.93,229.69 1557.03,232.47 1513.12,236.30 1445.80,240.66 1339.70,245.63">
        <lane id="15773693_0" index="0" allow="private emergency authority army vip passenger hov taxi bus coach delivery truck trailer motorcycle evehicle custom1 custom2" speed="13.89" length="547.31" shape="1746.28,-0.00 1739.43,34.70 1729.56,83.48 1724.11,102.29 1716.98,121.47 1709.95,135.20 1702.75,147.10 1693.32,160.78 1683.28,171.98 1673.55,182.06 1663.13,191.73 1642.53,205.96 1622.60,216.25 1598.77,225.05 1577.93,229.69 1557.03,232.47 1513.12,236.30 1445.80,240.66 1339.85,245.62">
            <param key="origId" value="15773693"/>
        </lane>
    </edge>
    <edge id="234877581" from="158046300" to="158003373" name="Bukit Timah Expressway" priority="14" type="highway.motorway" spreadType="center" shape="1696.92,936.82 1696.23,879.29 1699.11,774.34 1701.22,711.62 1709.38,604.45 1720.03,493.80 1738.84,344.33 1747.70,287.61 1749.53,238.63">
        <lane id="234877581_0" index="0" allow="private emergency authority army vip passenger hov taxi bus coach delivery truck trailer motorcycle evehicle custom1 custom2" speed="25.00" length="660.04" shape="1693.25,897.62 1693.03,879.27 1695.91,774.24 1698.02,711.44 1706.19,604.18 1716.85,493.45 1735.67,343.88 1744.51,287.30 1746.26,240.39">
            <param key="origId" value="234877581 115843655"/>
        </lane>
        <lane id="234877581_1" index="1" allow="private emergency authority army vip passenger hov taxi bus coach delivery truck trailer motorcycle evehicle custom1 custom2" speed="25.00" length="660.04" shape="1696.45,897.59 1696.23,879.29 1699.11,774.34 1701.22,711.62 1709.38,604.45 1720.03,493.80 1738.84,344.33 1747.70,287.61 1749.47,240.35">
            <param key="origId" value="234877581 115843655"/>
        </lane>
        <lane id="234877581_2" index="2" allow="private emergency authority army vip passenger hov taxi bus coach delivery truck trailer motorcycle evehicle custom1 custom2" speed="25.00" length="660.04" shape="1699.65,897.55 1699.43,879.31 1702.31,774.44 1704.42,711.80 1712.57,604.72 1723.21,494.15 1742.01,344.78 1750.89,287.92 1752.67,240.31">
            <param key="origId" value="234877581 115843655"/>
        </lane>
        <param key="ref" value="BKE"/>
    </edge>
    <edge id="262190478" from="158052803" to="158003373" priority="9" type="highway.motorway_link" spreadType="center" shape="1718.17,257.18 1752.24,256.65 1783.04,259.17 1799.24,261.29 1815.51,266.06 1830.96,271.65 1844.44,278.29 1854.70,284.60 1864.66,292.07 1882.97,309.41 1896.27,328.10 1906.60,347.79 1913.53,367.59 1916.14,379.74 1917.87,392.11 1918.10,403.37 1916.98,414.50 1913.49,425.76 1908.42,437.24 1893.63,454.50 1878.14,464.69 1862.69,473.36 1842.86,475.45 1816.29,471.02 1791.22,455.47 1775.27,435.71 1763.99,411.30 1756.24,386.86 1753.74,351.56 1755.52,317.49 1756.45,287.54 1755.88,239.42">
        <lane id="262190478_0" index="0" allow="private emergency authority army vip passenger hov taxi bus coach delivery truck trailer motorcycle evehicle custom1 custom2" speed="13.89" length="677.18" shape="1718.29,255.58 1752.29,255.05 1783.21,257.58 1799.57,259.72 1816.01,264.54 1831.59,270.18 1845.21,276.89 1855.60,283.28 1865.69,290.85 1884.18,308.36 1897.64,327.26 1908.07,347.15 1915.07,367.16 1917.72,379.46 1919.47,391.98 1919.70,403.43 1918.56,414.82 1914.99,426.32 1909.79,438.10 1894.70,455.71 1878.97,466.06 1863.19,474.92 1842.81,477.06 1815.72,472.55 1790.15,456.69 1773.90,436.56 1762.50,411.88 1754.66,387.16 1752.14,351.57 1753.92,317.42 1754.85,287.52 1754.29,240.29">
            <param key="origId" value="262190478 262190479 115843659"/>
        </lane>
        <lane id="262190478_1" index="1" allow="private emergency authority army vip passenger hov taxi bus coach delivery truck trailer motorcycle evehicle custom1 custom2" speed="13.89" length="677.18" shape="1718.34,258.78 1752.19,258.25 1782.87,260.76 1798.91,262.86 1815.01,267.58 1830.33,273.12 1843.67,279.69 1853.80,285.92 1863.63,293.29 1881.76,310.46 1894.90,328.94 1905.13,348.43 1911.99,368.02 1914.56,380.02 1916.27,392.24 1916.50,403.31 1915.40,414.18 1911.99,425.20 1907.05,436.38 1892.56,453.29 1877.31,463.32 1862.19,471.80 1842.91,473.84 1816.86,469.49 1792.29,454.25 1776.64,434.86 1765.48,410.72 1757.82,386.56 1755.34,351.55 1757.12,317.56 1758.05,287.56 1757.49,240.25">
            <param key="origId" value="262190478 262190479 115843659"/>
        </lane>
    </edge>
    <edge id="262190481" from="158043131" to="158043151" priority="9" type="highway.motorway_link" spreadType="center" shape="1783.06,242.09 1763.61,242.16 1716.58,243.82">
        <lane id="262190481_0" index="0" allow="private emergency authority army vip passenger hov taxi bus coach delivery truck trailer motorcycle evehicle custom1 custom2" speed="13.89" length="58.65" shape="1779.20,242.10 1763.61,242.16 1720.58,243.68">
            <param key="origId" value="262190481"/>
        </lane>
    </edge>
    <edge id="462871390" from="6076115189" to="158014654" priority="9" type="highway.motorway_link" spreadType="center" shape="1426.44,284.38 1480.04,279.85 1519.53,278.96 1551.12,282.20 1579.40,287.26 1599.47,293.66 1617.39,301.95 1641.18,317.85 1653.58,330.71 1665.08,345.29 1671.60,355.48 1678.15,368.35 1684.04,384.07 1688.14,399.98 1691.66,421.41 1692.47,437.87 1691.94,461.26 1690.36,485.90 1684.43,569.21 1680.32,678.59">
        <lane id="462871390_0" index="0" allow="private emergency authority army vip passenger hov taxi bus coach delivery truck trailer motorcycle evehicle custom1 custom2" speed="13.89" length="526.78" shape="1430.29,282.45 1479.95,278.25 1519.59,277.36 1551.34,280.61 1579.79,285.70 1600.05,292.17 1618.18,300.55 1642.21,316.62 1654.79,329.66 1666.39,344.36 1672.99,354.68 1679.62,367.70 1685.57,383.59 1689.71,399.65 1693.25,421.24 1694.07,437.85 1693.54,461.33 1691.96,486.01 1686.03,569.30 1684.47,610.82">
            <param key="origId" value="462871390 809905253"/>
        </lane>
        <lane id="462871390_1" index="1" allow="private emergency authority army vip passenger hov taxi bus coach delivery truck trailer motorcycle evehicle custom1 custom2" speed="13.89" length="526.78" shape="1430.55,285.64 1480.13,281.45 1519.47,280.56 1550.90,283.79 1579.01,288.82 1598.89,295.15 1616.60,303.35 1640.15,319.08 1652.37,331.76 1663.77,346.22 1670.21,356.28 1676.68,369.00 1682.51,384.55 1686.57,400.31 1690.07,421.58 1690.87,437.89 1690.34,461.19 1688.76,485.79 1682.83,569.12 1681.27,610.70">
            <param key="origId" value="462871390 809905253"/>
        </lane>
    </edge>
    <edge id="462871393" from="5971965758" to="7572124720" priority="9" type="highway.motorway_link" spreadType="center" shape="1569.81,247.39 1530.49,248.42 1447.76,250.92 1339.45,254.81">
        <lane id="462871393_0" index="0" allow="private emergency authority army vip passenger hov taxi bus coach delivery truck trailer motorcycle evehicle custom1 custom2" speed="25.00" length="222.48" shape="1565.90,250.69 1530.58,251.62 1447.87,254.12 1343.57,257.86">