<?xml version="1.0" encoding="UTF-8"?>

<!-- generated on 2023-07-18 14:18:27 by Eclipse SUMO netconvert Version 1.17.0
<configuration xmlns:xsi="http://www.w3.org/2001/XMLSchema-instance" xsi:noNamespaceSchemaLocation="http://sumo.dlr.de/xsd/netconvertConfiguration.xsd">

    <input>
        <sumo-net-file value="osm.net.xml.gz"/>
    </input>

    <output>
        <output-file value="osm.net.xml"/>
        <output.street-names value="true"/>
    </output>

    <processing>
        <geometry.min-radius.fix.railways value="false"/>
        <geometry.max-grade.fix value="false"/>
        <offset.disable-normalization value="true"/>
        <lefthand value="1"/>
    </processing>

    <junctions>
        <no-turnarounds value="true"/>
        <junctions.corner-detail value="5"/>
        <junctions.limit-turn-speed value="5.50"/>
        <rectangular-lane-cut value="0"/>
    </junctions>

    <pedestrian>
        <walkingareas value="0"/>
    </pedestrian>

</configuration>
-->

<net version="1.16" junctionCornerDetail="5" lefthand="true" limitTurnSpeed="5.50" xmlns:xsi="http://www.w3.org/2001/XMLSchema-instance" xsi:noNamespaceSchemaLocation="http://sumo.dlr.de/xsd/net_file.xsd">

    <location netOffset="-382398.08,-150770.33" convBoundary="0.00,0.00,1128.64,758.65" origBoundary="103.942902,1.363831,103.953047,1.370695" projParameter="+proj=utm +zone=48 +ellps=WGS84 +datum=WGS84 +units=m +no_defs"/>

    <type id="highway.bridleway" priority="1" numLanes="1" speed="2.78" allow="pedestrian" oneway="1" width="2.00"/>
    <type id="highway.bus_guideway" priority="1" numLanes="1" speed="27.78" allow="bus" oneway="1"/>
    <type id="highway.cycleway" priority="1" numLanes="1" speed="5.56" allow="bicycle" oneway="0" width="1.00"/>
    <type id="highway.footway" priority="1" numLanes="1" speed="2.78" allow="pedestrian" oneway="1" width="2.00"/>
    <type id="highway.ford" priority="1" numLanes="1" speed="2.78" allow="army" oneway="0"/>
    <type id="highway.living_street" priority="2" numLanes="1" speed="2.78" disallow="tram rail_urban rail rail_electric rail_fast ship" oneway="0"/>
    <type id="highway.motorway" priority="14" numLanes="2" speed="39.44" allow="private emergency authority army vip passenger hov taxi bus coach delivery truck trailer motorcycle evehicle custom1 custom2" oneway="1"/>
    <type id="highway.motorway_link" priority="9" numLanes="1" speed="22.22" allow="private emergency authority army vip passenger hov taxi bus coach delivery truck trailer motorcycle evehicle custom1 custom2" oneway="1"/>
    <type id="highway.path" priority="1" numLanes="1" speed="5.56" allow="pedestrian bicycle" oneway="0" width="2.00"/>
    <type id="highway.pedestrian" priority="1" numLanes="1" speed="2.78" allow="pedestrian" oneway="1" width="2.00"/>
    <type id="highway.primary" priority="12" numLanes="2" speed="27.78" disallow="tram rail_urban rail rail_electric rail_fast ship" oneway="0"/>
    <type id="highway.primary_link" priority="7" numLanes="1" speed="22.22" disallow="tram rail_urban rail rail_electric rail_fast ship" oneway="0"/>
    <type id="highway.raceway" priority="15" numLanes="2" speed="83.33" allow="vip" oneway="0"/>
    <type id="highway.residential" priority="3" numLanes="1" speed="13.89" disallow="tram rail_urban rail rail_electric rail_fast ship" oneway="0"/>
    <type id="highway.secondary" priority="11" numLanes="1" speed="27.78" disallow="tram rail_urban rail rail_electric rail_fast ship" oneway="0"/>
    <type id="highway.secondary_link" priority="6" numLanes="1" speed="22.22" disallow="tram rail_urban rail rail_electric rail_fast ship" oneway="0"/>
    <type id="highway.service" priority="1" numLanes="1" speed="5.56" allow="pedestrian delivery bicycle" oneway="0"/>
    <type id="highway.stairs" priority="1" numLanes="1" speed="1.39" allow="pedestrian" oneway="1" width="2.00"/>
    <type id="highway.step" priority="1" numLanes="1" speed="1.39" allow="pedestrian" oneway="1" width="2.00"/>
    <type id="highway.steps" priority="1" numLanes="1" speed="1.39" allow="pedestrian" oneway="1" width="2.00"/>
    <type id="highway.tertiary" priority="10" numLanes="1" speed="22.22" disallow="tram rail_urban rail rail_electric rail_fast ship" oneway="0"/>
    <type id="highway.tertiary_link" priority="5" numLanes="1" speed="22.22" disallow="tram rail_urban rail rail_electric rail_fast ship" oneway="0"/>
    <type id="highway.track" priority="1" numLanes="1" speed="5.56" allow="pedestrian motorcycle moped bicycle" oneway="0"/>
    <type id="highway.trunk" priority="13" numLanes="2" speed="27.78" disallow="pedestrian bicycle tram rail_urban rail rail_electric rail_fast ship" oneway="0"/>
    <type id="highway.trunk_link" priority="8" numLanes="1" speed="22.22" disallow="pedestrian bicycle tram rail_urban rail rail_electric rail_fast ship" oneway="0"/>
    <type id="highway.unclassified" priority="4" numLanes="1" speed="13.89" disallow="tram rail_urban rail rail_electric rail_fast ship" oneway="0"/>
    <type id="highway.unsurfaced" priority="1" numLanes="1" speed="8.33" disallow="tram rail_urban rail rail_electric rail_fast ship" oneway="0"/>
    <type id="railway.highspeed" priority="21" numLanes="1" speed="69.44" allow="rail_fast" oneway="1"/>
    <type id="railway.light_rail" priority="19" numLanes="1" speed="27.78" allow="rail_urban" oneway="1"/>
    <type id="railway.preserved" priority="16" numLanes="1" speed="27.78" allow="rail" oneway="1"/>
    <type id="railway.rail" priority="20" numLanes="1" speed="44.44" allow="rail" oneway="1"/>
    <type id="railway.subway" priority="18" numLanes="1" speed="27.78" allow="rail_urban" oneway="1"/>
    <type id="railway.tram" priority="17" numLanes="1" speed="13.89" allow="tram" oneway="1"/>

    <edge id=":173196574#0-AddedOffRampNode_0" function="internal">
        <lane id=":173196574#0-AddedOffRampNode_0_0" index="0" allow="private emergency authority army vip passenger hov taxi bus coach delivery truck trailer motorcycle evehicle custom1 custom2" speed="25.00" length="8.20" shape="687.68,283.68 685.17,283.70 683.44,282.95 681.71,282.19 679.19,282.21"/>
        <lane id=":173196574#0-AddedOffRampNode_0_1" index="1" allow="private emergency authority army vip passenger hov taxi bus coach delivery truck trailer motorcycle evehicle custom1 custom2" speed="25.00" length="8.20" shape="687.68,283.68 679.86,285.34"/>
        <lane id=":173196574#0-AddedOffRampNode_0_2" index="2" allow="private emergency authority army vip passenger hov taxi bus coach delivery truck trailer motorcycle evehicle custom1 custom2" speed="25.00" length="8.20" shape="688.34,286.81 680.52,288.47"/>
        <lane id=":173196574#0-AddedOffRampNode_0_3" index="3" allow="private emergency authority army vip passenger hov taxi bus coach delivery truck trailer motorcycle evehicle custom1 custom2" speed="25.00" length="8.20" shape="689.01,289.94 681.18,291.60"/>
    </edge>
    <edge id=":173196574#1-AddedOffRampNode_0" function="internal">
        <lane id=":173196574#1-AddedOffRampNode_0_0" index="0" allow="private emergency authority army vip passenger hov taxi bus coach delivery truck trailer motorcycle evehicle custom1 custom2" speed="25.00" length="8.20" shape="504.09,326.59 501.58,326.73 499.81,326.06 498.05,325.38 495.54,325.52"/>
        <lane id=":173196574#1-AddedOffRampNode_0_1" index="1" allow="private emergency authority army vip passenger hov taxi bus coach delivery truck trailer motorcycle evehicle custom1 custom2" speed="25.00" length="8.20" shape="504.09,326.59 496.35,328.61"/>
        <lane id=":173196574#1-AddedOffRampNode_0_2" index="2" allow="private emergency authority army vip passenger hov taxi bus coach delivery truck trailer motorcycle evehicle custom1 custom2" speed="25.00" length="8.20" shape="504.90,329.69 497.16,331.71"/>
        <lane id=":173196574#1-AddedOffRampNode_0_3" index="3" allow="private emergency authority army vip passenger hov taxi bus coach delivery truck trailer motorcycle evehicle custom1 custom2" speed="25.00" length="8.20" shape="505.71,332.78 497.97,334.81"/>
    </edge>
    <edge id=":1781759984_0" function="internal">
        <lane id=":1781759984_0_0" index="0" allow="private emergency authority army vip passenger hov taxi bus coach delivery truck trailer motorcycle evehicle custom1 custom2" speed="15.28" length="65.11" shape="323.16,123.34 301.57,61.91"/>
    </edge>
    <edge id=":1781759984_1" function="internal">
        <lane id=":1781759984_1_0" index="0" disallow="tram rail_urban rail rail_electric rail_fast ship" speed="16.67" length="64.77" shape="319.70,124.52 316.01,110.58 311.36,92.96 306.36,75.47 301.57,61.91"/>
        <lane id=":1781759984_1_1" index="1" disallow="tram rail_urban rail rail_electric rail_fast ship" speed="16.67" length="64.77" shape="316.62,125.38 312.95,111.50 308.36,94.03 303.40,76.68 298.64,63.19"/>
        <lane id=":1781759984_1_2" index="2" disallow="tram rail_urban rail rail_electric rail_fast ship" speed="16.67" length="64.77" shape="313.54,126.24 309.89,112.43 305.35,95.09 300.44,77.89 295.70,64.46"/>
    </edge>
    <edge id=":1809047373_0" function="internal">
        <lane id=":1809047373_0_0" index="0" allow="private emergency authority army vip passenger hov taxi bus coach delivery truck trailer motorcycle evehicle custom1 custom2" speed="15.28" length="5.32" shape="315.84,197.52 316.17,199.06 316.27,200.13 316.23,201.22 316.15,202.80"/>
    </edge>
    <edge id=":1809047373_1" function="internal">
        <lane id=":1809047373_1_0" index="0" disallow="tram rail_urban rail rail_electric rail_fast ship" speed="16.67" length="5.55" shape="318.94,196.74 319.24,198.40 319.30,199.58 319.38,200.74 319.77,202.38"/>
        <lane id=":1809047373_1_1" index="1" disallow="tram rail_urban rail rail_electric rail_fast ship" speed="16.67" length="5.55" shape="322.04,195.95 322.33,197.57 322.38,198.71 322.45,199.84 322.82,201.43"/>
        <lane id=":1809047373_1_2" index="2" disallow="tram rail_urban rail rail_electric rail_fast ship" speed="16.67" length="5.55" shape="325.14,195.17 325.42,196.73 325.45,197.83 325.51,198.93 325.87,200.47"/>
    </edge>
    <edge id=":1809047411_0" function="internal">
        <lane id=":1809047411_0_0" index="0" allow="private emergency authority army vip passenger hov taxi bus coach delivery truck trailer motorcycle evehicle custom1 custom2" speed="13.89" length="24.82" shape="345.77,249.61 342.17,246.45 337.28,242.54 331.25,239.18 324.21,237.64"/>
        <lane id=":1809047411_0_1" index="1" allow="private emergency authority army vip passenger hov taxi bus coach delivery truck trailer motorcycle evehicle custom1 custom2" speed="13.89" length="24.82" shape="345.77,249.61 342.03,246.95 336.84,244.13 330.51,241.86 323.33,240.82"/>
    </edge>
    <edge id=":1809047411_2" function="internal">
        <lane id=":1809047411_2_0" index="0" disallow="tram rail_urban rail rail_electric rail_fast ship" speed="16.67" length="24.40" shape="328.99,231.85 336.00,255.16"/>
        <lane id=":1809047411_2_1" index="1" disallow="tram rail_urban rail rail_electric rail_fast ship" speed="16.67" length="24.40" shape="332.04,230.89 339.08,254.26"/>
        <lane id=":1809047411_2_2" index="2" disallow="tram rail_urban rail rail_electric rail_fast ship" speed="16.67" length="24.40" shape="335.09,229.94 342.15,253.36"/>
    </edge>
    <edge id=":1809047416_0" function="internal">
        <lane id=":1809047416_0_0" index="0" allow="private emergency authority army vip passenger hov taxi bus coach delivery truck trailer motorcycle evehicle custom1 custom2" speed="13.89" length="28.32" shape="293.68,240.99 289.29,243.63 283.04,247.12 275.90,250.94 268.83,254.55"/>
    </edge>
    <edge id=":1809047416_1" function="internal">
        <lane id=":1809047416_1_0" index="0" allow="private emergency authority army vip passenger hov taxi bus coach delivery truck trailer motorcycle evehicle custom1 custom2" speed="13.89" length="28.25" shape="295.50,244.70 288.60,247.00 281.98,249.19 275.45,251.60 268.83,254.55"/>
        <lane id=":1809047416_1_1" index="1" allow="private emergency authority army vip passenger hov taxi bus coach delivery truck trailer motorcycle evehicle custom1 custom2" speed="13.89" length="28.25" shape="296.56,247.72 289.72,249.99 283.22,252.13 276.81,254.49 270.25,257.42"/>
    </edge>
    <edge id=":1809047418_0" function="internal">
        <lane id=":1809047418_0_0" index="0" allow="private emergency authority army vip passenger hov taxi bus coach delivery truck trailer motorcycle evehicle custom1 custom2" speed="10.88" length="9.11" shape="333.33,260.14 335.64,261.57 337.25,262.67 338.40,264.10 339.34,266.53"/>
    </edge>
    <edge id=":1809047418_1" function="internal">
        <lane id=":1809047418_1_0" index="0" disallow="tram rail_urban rail rail_electric rail_fast ship" speed="16.67" length="9.00" shape="336.81,257.91 339.34,266.53"/>
        <lane id=":1809047418_1_1" index="1" disallow="tram rail_urban rail rail_electric rail_fast ship" speed="16.67" length="9.00" shape="339.88,257.01 342.42,265.65"/>
        <lane id=":1809047418_1_2" index="2" disallow="tram rail_urban rail rail_electric rail_fast ship" speed="16.67" length="9.00" shape="342.95,256.11 345.49,264.77"/>
    </edge>
    <edge id=":1809047419_0" function="internal">
        <lane id=":1809047419_0_0" index="0" disallow="tram rail_urban rail rail_electric rail_fast ship" speed="16.67" length="0.28" shape="354.29,318.64 354.35,318.86"/>
        <lane id=":1809047419_0_1" index="1" disallow="tram rail_urban rail rail_electric rail_fast ship" speed="16.67" length="0.28" shape="357.36,317.75 357.44,318.03"/>
        <lane id=":1809047419_0_2" index="2" disallow="tram rail_urban rail rail_electric rail_fast ship" speed="16.67" length="0.28" shape="360.44,316.87 360.53,317.20"/>
    </edge>
    <edge id=":1809047421_0" function="internal">
        <lane id=":1809047421_0_0" index="0" disallow="tram rail_urban rail rail_electric rail_fast ship" speed="16.67" length="0.33" shape="378.87,410.22 378.89,410.33"/>
        <lane id=":1809047421_0_1" index="1" disallow="tram rail_urban rail rail_electric rail_fast ship" speed="16.67" length="0.33" shape="381.96,409.39 382.03,409.71"/>
        <lane id=":1809047421_0_2" index="2" disallow="tram rail_urban rail rail_electric rail_fast ship" speed="16.67" length="0.33" shape="385.05,408.56 385.17,409.10"/>
    </edge>
    <edge id=":1809047454_0" function="internal">
        <lane id=":1809047454_0_0" index="0" allow="private emergency authority army vip passenger hov taxi bus coach delivery truck trailer motorcycle evehicle custom1 custom2" speed="15.28" length="16.80" shape="385.37,474.47 387.88,477.08 390.09,479.98 391.94,483.72 393.39,488.89"/>
    </edge>
    <edge id=":1809047454_1" function="internal">
        <lane id=":1809047454_1_0" index="0" disallow="tram rail_urban rail rail_electric rail_fast ship" speed="16.67" length="16.55" shape="390.71,472.50 393.39,488.89"/>
        <lane id=":1809047454_1_1" index="1" disallow="tram rail_urban rail rail_electric rail_fast ship" speed="16.67" length="16.55" shape="393.86,471.92 396.53,488.25"/>
        <lane id=":1809047454_1_2" index="2" disallow="tram rail_urban rail rail_electric rail_fast ship" speed="16.67" length="16.55" shape="397.01,471.34 399.66,487.62"/>
    </edge>
    <edge id=":1840895102_0" function="internal">
        <lane id=":1840895102_0_0" index="0" disallow="tram rail_urban rail rail_electric rail_fast ship" speed="12.50" length="9.40" shape="635.56,524.62 632.73,525.20 630.60,524.96 628.55,524.89 625.95,525.93"/>
        <lane id=":1840895102_0_1" index="1" disallow="tram rail_urban rail rail_electric rail_fast ship" speed="12.50" length="9.40" shape="635.56,524.62 633.11,525.59 631.46,526.35 629.89,527.24 627.65,528.64"/>
    </edge>
    <edge id=":1840895102_2" function="internal">
        <lane id=":1840895102_2_0" index="0" disallow="tram rail_urban rail rail_electric rail_fast ship" speed="12.50" length="8.29" shape="629.45,531.50 631.46,530.09 632.90,529.21 634.43,528.50 636.72,527.60"/>
    </edge>
    <edge id=":243681095_0" function="internal">
        <lane id=":243681095_0_0" index="0" disallow="tram rail_urban rail rail_electric rail_fast ship" speed="16.67" length="8.20" shape="375.38,316.59 375.00,314.19 375.11,312.50 375.22,310.80 374.81,308.41"/>
        <lane id=":243681095_0_1" index="1" disallow="tram rail_urban rail rail_electric rail_fast ship" speed="16.67" length="8.20" shape="372.29,317.41 371.91,315.03 372.03,313.34 372.13,311.65 371.73,309.27"/>
        <lane id=":243681095_0_2" index="2" disallow="tram rail_urban rail rail_electric rail_fast ship" speed="16.67" length="8.20" shape="369.20,318.24 368.82,315.86 368.94,314.18 369.05,312.49 368.65,310.13"/>
        <lane id=":243681095_0_3" index="3" disallow="tram rail_urban rail rail_electric rail_fast ship" speed="16.67" length="8.20" shape="369.20,318.24 368.34,316.00 367.40,314.61 366.44,313.22 365.56,310.99"/>
    </edge>
    <edge id=":4648760709_0" function="internal">
        <lane id=":4648760709_0_0" index="0" disallow="tram rail_urban rail rail_electric rail_fast ship" speed="13.89" length="8.75" shape="610.50,534.28 608.39,535.40 606.99,536.35 605.54,537.07 603.25,537.46"/>
        <lane id=":4648760709_0_1" index="1" disallow="tram rail_urban rail rail_electric rail_fast ship" speed="13.89" length="8.75" shape="612.12,537.06 609.61,538.35 607.93,539.42 606.19,540.21 603.47,540.65"/>
    </edge>
    <edge id=":4648760709_2" function="internal">
        <lane id=":4648760709_2_0" index="0" disallow="tram rail_urban rail rail_electric rail_fast ship" speed="7.63" length="6.67" shape="610.66,540.76 609.45,539.17 607.81,538.10 605.74,537.53 603.25,537.46"/>
        <lane id=":4648760709_2_1" index="1" disallow="tram rail_urban rail rail_electric rail_fast ship" speed="9.43" length="6.67" shape="607.93,541.89 606.71,541.21 605.81,540.79 604.86,540.62 603.47,540.65"/>
    </edge>
    <edge id=":5218790798_0" function="internal">
        <lane id=":5218790798_0_0" index="0" disallow="tram rail_urban rail rail_electric rail_fast ship" speed="13.89" length="8.09" shape="613.47,564.70 613.00,562.36 613.04,560.69 613.06,559.02 612.52,556.72"/>
    </edge>
    <edge id=":564822864_0" function="internal">
        <lane id=":564822864_0_0" index="0" disallow="tram rail_urban rail rail_electric rail_fast ship" speed="16.67" length="0.33" shape="399.06,405.41 398.94,404.88"/>
        <lane id=":564822864_0_1" index="1" disallow="tram rail_urban rail rail_electric rail_fast ship" speed="16.67" length="0.33" shape="395.92,406.02 395.85,405.70"/>
        <lane id=":564822864_0_2" index="2" disallow="tram rail_urban rail rail_electric rail_fast ship" speed="16.67" length="0.33" shape="392.78,406.63 392.76,406.53"/>
    </edge>
    <edge id=":564822922_0" function="internal">
        <lane id=":564822922_0_0" index="0" allow="private emergency authority army vip passenger hov taxi bus coach delivery truck trailer motorcycle evehicle custom1 custom2" speed="8.19" length="2.80" shape="586.99,301.70 586.17,301.86 585.61,302.01 585.10,302.27 584.46,302.77"/>
    </edge>
    <edge id=":564822922_1" function="internal">
        <lane id=":564822922_1_0" index="0" allow="private emergency authority army vip passenger hov taxi bus coach delivery truck trailer motorcycle evehicle custom1 custom2" speed="25.00" length="3.23" shape="587.65,304.83 584.36,305.61"/>
        <lane id=":564822922_1_1" index="1" allow="private emergency authority army vip passenger hov taxi bus coach delivery truck trailer motorcycle evehicle custom1 custom2" speed="25.00" length="3.23" shape="588.31,307.96 585.17,308.70"/>
        <lane id=":564822922_1_2" index="2" allow="private emergency authority army vip passenger hov taxi bus coach delivery truck trailer motorcycle evehicle custom1 custom2" speed="25.00" length="3.23" shape="588.97,311.09 585.98,311.80"/>
    </edge>
    <edge id=":565499231_0" function="internal">
        <lane id=":565499231_0_0" index="0" allow="private emergency authority army vip passenger hov taxi bus coach delivery truck trailer motorcycle evehicle custom1 custom2" speed="13.89" length="12.30" shape="349.19,466.26 352.96,465.79 355.72,465.71 358.29,465.80 361.46,465.83"/>
    </edge>
    <edge id=":565499231_1" function="internal">
        <lane id=":565499231_1_0" index="0" allow="private emergency authority army vip passenger hov taxi bus coach delivery truck trailer motorcycle evehicle custom1 custom2" speed="13.89" length="12.58" shape="348.68,463.10 352.39,462.71 354.97,462.78 357.55,462.84 361.26,462.44"/>
        <lane id=":565499231_1_1" index="1" allow="private emergency authority army vip passenger hov taxi bus coach delivery truck trailer motorcycle evehicle custom1 custom2" speed="13.89" length="12.58" shape="348.16,459.94 351.86,459.56 354.43,459.62 357.00,459.68 360.70,459.29"/>
        <lane id=":565499231_1_2" index="2" allow="private emergency authority army vip passenger hov taxi bus coach delivery truck trailer motorcycle evehicle custom1 custom2" speed="13.89" length="12.58" shape="347.65,456.79 351.33,456.40 353.89,456.47 356.45,456.53 360.14,456.14"/>
    </edge>
    <edge id=":565499234_0" function="internal">
        <lane id=":565499234_0_0" index="0" allow="private emergency authority army vip passenger hov taxi bus coach delivery truck trailer motorcycle evehicle custom1 custom2" speed="19.45" length="4.02" shape="403.85,349.49 402.72,349.82 401.97,350.13 401.25,350.53 400.20,351.11"/>
    </edge>
    <edge id=":565499234_1" function="internal">
        <lane id=":565499234_1_0" index="0" allow="private emergency authority army vip passenger hov taxi bus coach delivery truck trailer motorcycle evehicle custom1 custom2" speed="25.00" length="2.53" shape="404.66,352.58 403.72,352.83 403.08,353.03 402.45,353.26 401.54,353.61"/>
        <lane id=":565499234_1_1" index="1" allow="private emergency authority army vip passenger hov taxi bus coach delivery truck trailer motorcycle evehicle custom1 custom2" speed="25.00" length="2.53" shape="405.47,355.68 404.75,355.87 404.25,356.02 403.77,356.19 403.07,356.45"/>
        <lane id=":565499234_1_2" index="2" allow="private emergency authority army vip passenger hov taxi bus coach delivery truck trailer motorcycle evehicle custom1 custom2" speed="25.00" length="2.53" shape="406.28,358.77 405.77,358.90 405.43,359.00 405.08,359.11 404.59,359.30"/>
    </edge>
    <edge id=":565499240_0" function="internal">
        <lane id=":565499240_0_0" index="0" disallow="tram rail_urban rail rail_electric rail_fast ship" speed="16.67" length="11.94" shape="360.22,255.99 358.95,252.69 357.59,250.62 356.21,248.57 354.86,245.29"/>
        <lane id=":565499240_0_1" index="1" disallow="tram rail_urban rail rail_electric rail_fast ship" speed="16.67" length="11.94" shape="357.13,256.84 355.87,253.57 354.52,251.52 353.14,249.48 351.80,246.23"/>
        <lane id=":565499240_0_2" index="2" disallow="tram rail_urban rail rail_electric rail_fast ship" speed="16.67" length="11.94" shape="354.05,257.70 352.80,254.45 351.45,252.42 350.08,250.39 348.74,247.16"/>
    </edge>
    <edge id=":565499240_3" function="internal">
        <lane id=":565499240_3_0" index="0" allow="private emergency authority army vip passenger hov taxi bus coach delivery truck trailer motorcycle evehicle custom1 custom2" speed="12.83" length="10.46" shape="350.97,258.56 350.15,255.56 349.40,253.49 348.17,251.75 345.93,249.73"/>
    </edge>
    <edge id=":565499269_0" function="internal">
        <lane id=":565499269_0_0" index="0" allow="private emergency authority army vip passenger hov taxi bus coach delivery truck trailer motorcycle evehicle custom1 custom2" speed="19.45" length="3.14" shape="664.51,321.73 667.57,320.99"/>
    </edge>
    <edge id=":565499269_1" function="internal">
        <lane id=":565499269_1_0" index="0" allow="private emergency authority army vip passenger hov taxi bus coach delivery truck trailer motorcycle evehicle custom1 custom2" speed="25.00" length="2.84" shape="663.85,318.57 666.76,317.89"/>
        <lane id=":565499269_1_1" index="1" allow="private emergency authority army vip passenger hov taxi bus coach delivery truck trailer motorcycle evehicle custom1 custom2" speed="25.00" length="2.84" shape="663.19,315.44 665.96,314.79"/>
        <lane id=":565499269_1_2" index="2" allow="private emergency authority army vip passenger hov taxi bus coach delivery truck trailer motorcycle evehicle custom1 custom2" speed="25.00" length="2.84" shape="662.54,312.31 665.16,311.70"/>
    </edge>
    <edge id=":5977826807_0" function="internal">
        <lane id=":5977826807_0_0" index="0" allow="private emergency authority army vip passenger hov taxi bus coach delivery truck trailer motorcycle evehicle custom1 custom2" speed="13.89" length="8.11" shape="242.12,477.23 244.48,477.10 246.12,477.42 247.75,477.76 250.13,477.73"/>
        <lane id=":5977826807_0_1" index="1" allow="private emergency authority army vip passenger hov taxi bus coach delivery truck trailer motorcycle evehicle custom1 custom2" speed="13.89" length="8.11" shape="242.12,477.23 244.43,476.61 245.93,475.83 247.43,475.08 249.76,474.55"/>
    </edge>
    <edge id=":5977826808_0" function="internal">
        <lane id=":5977826808_0_0" index="0" allow="private emergency authority army vip passenger hov taxi bus coach delivery truck trailer motorcycle evehicle custom1 custom2" speed="13.89" length="8.30" shape="277.52,474.55 280.05,474.75 281.74,475.65 283.42,476.50 285.93,476.60"/>
        <lane id=":5977826808_0_1" index="1" allow="private emergency authority army vip passenger hov taxi bus coach delivery truck trailer motorcycle evehicle custom1 custom2" speed="13.89" length="8.30" shape="277.52,474.55 285.41,473.44"/>
        <lane id=":5977826808_0_2" index="2" allow="private emergency authority army vip passenger hov taxi bus coach delivery truck trailer motorcycle evehicle custom1 custom2" speed="13.89" length="8.30" shape="277.15,471.37 284.90,470.28"/>
        <lane id=":5977826808_0_3" index="3" allow="private emergency authority army vip passenger hov taxi bus coach delivery truck trailer motorcycle evehicle custom1 custom2" speed="13.89" length="8.30" shape="277.15,471.37 279.46,470.60 280.78,469.32 282.09,468.01 284.38,467.13"/>
    </edge>
    <edge id=":6138953113_0" function="internal">
        <lane id=":6138953113_0_0" index="0" disallow="tram rail_urban rail rail_electric rail_fast ship" speed="16.67" length="7.96" shape="308.46,162.93 308.92,165.14 308.83,166.72 308.70,168.33 309.01,170.58"/>
        <lane id=":6138953113_0_1" index="1" disallow="tram rail_urban rail rail_electric rail_fast ship" speed="16.67" length="7.96" shape="308.46,162.93 309.41,165.03 310.38,166.33 311.31,167.65 312.11,169.79"/>
        <lane id=":6138953113_0_2" index="2" disallow="tram rail_urban rail rail_electric rail_fast ship" speed="16.67" length="7.96" shape="311.50,161.93 312.47,164.10 313.46,165.44 314.40,166.80 315.22,169.01"/>
        <lane id=":6138953113_0_3" index="3" disallow="tram rail_urban rail rail_electric rail_fast ship" speed="16.67" length="7.96" shape="314.55,160.94 315.53,163.16 316.53,164.55 317.48,165.95 318.32,168.22"/>
    </edge>
    <edge id=":633243926-AddedOnRampNode_0" function="internal">
        <lane id=":633243926-AddedOnRampNode_0_0" index="0" allow="private emergency authority army vip passenger hov taxi bus coach delivery truck trailer motorcycle evehicle custom1 custom2" speed="25.00" length="8.00" shape="758.32,294.19 766.06,292.19"/>
        <lane id=":633243926-AddedOnRampNode_0_1" index="1" allow="private emergency authority army vip passenger hov taxi bus coach delivery truck trailer motorcycle evehicle custom1 custom2" speed="25.00" length="8.00" shape="757.52,291.09 765.26,289.09"/>
        <lane id=":633243926-AddedOnRampNode_0_2" index="2" allow="private emergency authority army vip passenger hov taxi bus coach delivery truck trailer motorcycle evehicle custom1 custom2" speed="25.00" length="8.00" shape="756.72,288.00 764.46,285.99"/>
    </edge>
    <edge id=":6690183799_0" function="internal">
        <lane id=":6690183799_0_0" index="0" allow="private emergency authority army vip passenger hov taxi bus coach delivery truck trailer motorcycle evehicle custom1 custom2" speed="13.89" length="8.21" shape="193.14,397.22 191.90,399.29 190.73,400.50 189.54,401.71 188.27,403.76"/>
    </edge>
    <edge id=":7106529121_0" function="internal">
        <lane id=":7106529121_0_0" index="0" disallow="tram rail_urban rail rail_electric rail_fast ship" speed="8.20" length="6.42" shape="611.64,546.66 612.00,545.30 612.72,544.00 613.81,542.75 615.26,541.57"/>
    </edge>
    <edge id=":7106529121_1" function="internal">
        <lane id=":7106529121_1_0" index="0" disallow="tram rail_urban rail rail_electric rail_fast ship" speed="9.66" length="4.93" shape="611.64,546.66 611.85,544.91 611.86,543.67 611.54,542.50 610.76,540.93"/>
        <lane id=":7106529121_1_1" index="1" disallow="tram rail_urban rail rail_electric rail_fast ship" speed="5.22" length="4.93" shape="608.53,545.73 608.64,544.79 608.70,543.66 608.56,542.63 608.11,541.99"/>
    </edge>
    <edge id=":7106529122_0" function="internal">
        <lane id=":7106529122_0_0" index="0" disallow="tram rail_urban rail rail_electric rail_fast ship" speed="13.45" length="6.64" shape="611.38,553.48 610.89,551.62 610.92,550.28 611.23,548.91 611.60,546.96"/>
    </edge>
    <edge id=":7106529122_1" function="internal">