<?xml version="1.0" encoding="UTF-8"?>

<!-- generated on 2023-07-18 13:48:42 by Eclipse SUMO netconvert Version 1.17.0
<configuration xmlns:xsi="http://www.w3.org/2001/XMLSchema-instance" xsi:noNamespaceSchemaLocation="http://sumo.dlr.de/xsd/netconvertConfiguration.xsd">

    <input>
        <sumo-net-file value="osm.net.xml.gz"/>
    </input>

    <output>
        <output-file value="osm.net.xml"/>
        <output.street-names value="true"/>
    </output>

    <processing>
        <geometry.min-radius.fix.railways value="false"/>
        <geometry.max-grade.fix value="false"/>
        <offset.disable-normalization value="true"/>
        <lefthand value="1"/>
    </processing>

    <junctions>
        <no-turnarounds value="true"/>
        <junctions.corner-detail value="5"/>
        <junctions.limit-turn-speed value="5.50"/>
        <rectangular-lane-cut value="0"/>
    </junctions>

    <pedestrian>
        <walkingareas value="0"/>
    </pedestrian>

</configuration>
-->

<net version="1.16" junctionCornerDetail="5" lefthand="true" limitTurnSpeed="5.50" xmlns:xsi="http://www.w3.org/2001/XMLSchema-instance" xsi:noNamespaceSchemaLocation="http://sumo.dlr.de/xsd/net_file.xsd">

    <location netOffset="-380990.75,-144537.21" convBoundary="0.00,0.00,1023.05,458.09" origBoundary="103.930279,1.307444,103.939473,1.311587" projParameter="+proj=utm +zone=48 +ellps=WGS84 +datum=WGS84 +units=m +no_defs"/>

    <type id="highway.bridleway" priority="1" numLanes="1" speed="2.78" allow="pedestrian" oneway="1" width="2.00"/>
    <type id="highway.bus_guideway" priority="1" numLanes="1" speed="27.78" allow="bus" oneway="1"/>
    <type id="highway.cycleway" priority="1" numLanes="1" speed="5.56" allow="bicycle" oneway="0" width="1.00"/>
    <type id="highway.footway" priority="1" numLanes="1" speed="2.78" allow="pedestrian" oneway="1" width="2.00"/>
    <type id="highway.ford" priority="1" numLanes="1" speed="2.78" allow="army" oneway="0"/>
    <type id="highway.living_street" priority="2" numLanes="1" speed="2.78" disallow="tram rail_urban rail rail_electric rail_fast ship" oneway="0"/>
    <type id="highway.motorway" priority="14" numLanes="2" speed="39.44" allow="private emergency authority army vip passenger hov taxi bus coach delivery truck trailer motorcycle evehicle custom1 custom2" oneway="1"/>
    <type id="highway.motorway_link" priority="9" numLanes="1" speed="22.22" allow="private emergency authority army vip passenger hov taxi bus coach delivery truck trailer motorcycle evehicle custom1 custom2" oneway="1"/>
    <type id="highway.path" priority="1" numLanes="1" speed="5.56" allow="pedestrian bicycle" oneway="0" width="2.00"/>
    <type id="highway.pedestrian" priority="1" numLanes="1" speed="2.78" allow="pedestrian" oneway="1" width="2.00"/>
    <type id="highway.primary" priority="12" numLanes="2" speed="27.78" disallow="tram rail_urban rail rail_electric rail_fast ship" oneway="0"/>
    <type id="highway.primary_link" priority="7" numLanes="1" speed="22.22" disallow="tram rail_urban rail rail_electric rail_fast ship" oneway="0"/>
    <type id="highway.raceway" priority="15" numLanes="2" speed="83.33" allow="vip" oneway="0"/>
    <type id="highway.residential" priority="3" numLanes="1" speed="13.89" disallow="tram rail_urban rail rail_electric rail_fast ship" oneway="0"/>
    <type id="highway.secondary" priority="11" numLanes="1" speed="27.78" disallow="tram rail_urban rail rail_electric rail_fast ship" oneway="0"/>
    <type id="highway.secondary_link" priority="6" numLanes="1" speed="22.22" disallow="tram rail_urban rail rail_electric rail_fast ship" oneway="0"/>
    <type id="highway.service" priority="1" numLanes="1" speed="5.56" allow="pedestrian delivery bicycle" oneway="0"/>
    <type id="highway.stairs" priority="1" numLanes="1" speed="1.39" allow="pedestrian" oneway="1" width="2.00"/>
    <type id="highway.step" priority="1" numLanes="1" speed="1.39" allow="pedestrian" oneway="1" width="2.00"/>
    <type id="highway.steps" priority="1" numLanes="1" speed="1.39" allow="pedestrian" oneway="1" width="2.00"/>
    <type id="highway.tertiary" priority="10" numLanes="1" speed="22.22" disallow="tram rail_urban rail rail_electric rail_fast ship" oneway="0"/>
    <type id="highway.tertiary_link" priority="5" numLanes="1" speed="22.22" disallow="tram rail_urban rail rail_electric rail_fast ship" oneway="0"/>
    <type id="highway.track" priority="1" numLanes="1" speed="5.56" allow="pedestrian motorcycle moped bicycle" oneway="0"/>
    <type id="highway.trunk" priority="13" numLanes="2" speed="27.78" disallow="pedestrian bicycle tram rail_urban rail rail_electric rail_fast ship" oneway="0"/>
    <type id="highway.trunk_link" priority="8" numLanes="1" speed="22.22" disallow="pedestrian bicycle tram rail_urban rail rail_electric rail_fast ship" oneway="0"/>
    <type id="highway.unclassified" priority="4" numLanes="1" speed="13.89" disallow="tram rail_urban rail rail_electric rail_fast ship" oneway="0"/>
    <type id="highway.unsurfaced" priority="1" numLanes="1" speed="8.33" disallow="tram rail_urban rail rail_electric rail_fast ship" oneway="0"/>
    <type id="railway.highspeed" priority="21" numLanes="1" speed="69.44" allow="rail_fast" oneway="1"/>
    <type id="railway.light_rail" priority="19" numLanes="1" speed="27.78" allow="rail_urban" oneway="1"/>
    <type id="railway.preserved" priority="16" numLanes="1" speed="27.78" allow="rail" oneway="1"/>
    <type id="railway.rail" priority="20" numLanes="1" speed="44.44" allow="rail" oneway="1"/>
    <type id="railway.subway" priority="18" numLanes="1" speed="27.78" allow="rail_urban" oneway="1"/>
    <type id="railway.tram" priority="17" numLanes="1" speed="13.89" allow="tram" oneway="1"/>

    <edge id=":1143845175_0" function="internal">
        <lane id=":1143845175_0_0" index="0" allow="private emergency authority army vip passenger hov taxi bus coach delivery truck trailer motorcycle evehicle custom1 custom2" speed="13.89" length="8.20" shape="266.59,88.30 264.32,87.50 262.89,86.60 261.45,85.70 259.17,84.92"/>
    </edge>
    <edge id=":1143845202_0" function="internal">
        <lane id=":1143845202_0_0" index="0" allow="private emergency authority army vip passenger hov taxi bus coach delivery truck trailer motorcycle evehicle custom1 custom2" speed="10.94" length="18.33" shape="341.42,87.89 336.52,88.31 332.18,87.47 328.39,85.37 325.17,82.01"/>
        <lane id=":1143845202_0_1" index="1" allow="private emergency authority army vip passenger hov taxi bus coach delivery truck trailer motorcycle evehicle custom1 custom2" speed="11.96" length="19.66" shape="342.06,91.02 336.72,91.55 331.95,90.84 327.73,88.91 324.08,85.75"/>
    </edge>
    <edge id=":1143845202_2" function="internal">
        <lane id=":1143845202_2_0" index="0" allow="private emergency authority army vip passenger hov taxi bus coach delivery truck trailer motorcycle evehicle custom1 custom2" speed="13.89" length="19.19" shape="342.06,91.02 336.47,91.89 332.59,92.00 328.67,91.85 322.99,91.97"/>
        <lane id=":1143845202_2_1" index="1" allow="private emergency authority army vip passenger hov taxi bus coach delivery truck trailer motorcycle evehicle custom1 custom2" speed="13.89" length="19.19" shape="342.70,94.16 337.08,95.04 333.18,95.15 329.25,95.01 323.54,95.14"/>
    </edge>
    <edge id=":1143850529_0" function="internal">
        <lane id=":1143850529_0_0" index="0" allow="private emergency authority army vip passenger hov taxi bus coach delivery truck trailer motorcycle evehicle custom1 custom2" speed="19.45" length="3.99" shape="558.85,174.68 557.71,174.37 556.92,174.19 556.12,174.04 554.95,173.84"/>
    </edge>
    <edge id=":1143850529_1" function="internal">
        <lane id=":1143850529_1_0" index="0" allow="private emergency authority army vip passenger hov taxi bus coach delivery truck trailer motorcycle evehicle custom1 custom2" speed="25.00" length="3.51" shape="557.97,177.76 554.45,176.69"/>
        <lane id=":1143850529_1_1" index="1" allow="private emergency authority army vip passenger hov taxi bus coach delivery truck trailer motorcycle evehicle custom1 custom2" speed="25.00" length="3.51" shape="557.09,180.84 553.89,179.87"/>
    </edge>
    <edge id=":1314046117_0" function="internal">
        <lane id=":1314046117_0_0" index="0" allow="private emergency authority army vip passenger hov taxi bus coach delivery truck trailer motorcycle evehicle custom1 custom2" speed="19.45" length="5.31" shape="523.77,199.86 525.30,200.24 526.36,200.39 527.44,200.45 529.02,200.55"/>
    </edge>
    <edge id=":1314046117_1" function="internal">
        <lane id=":1314046117_1_0" index="0" allow="private emergency authority army vip passenger hov taxi bus coach delivery truck trailer motorcycle evehicle custom1 custom2" speed="25.00" length="4.12" shape="524.61,196.78 529.19,198.07"/>
        <lane id=":1314046117_1_1" index="1" allow="private emergency authority army vip passenger hov taxi bus coach delivery truck trailer motorcycle evehicle custom1 custom2" speed="25.00" length="4.12" shape="525.45,193.69 529.42,194.80"/>
        <lane id=":1314046117_1_2" index="2" allow="private emergency authority army vip passenger hov taxi bus coach delivery truck trailer motorcycle evehicle custom1 custom2" speed="25.00" length="4.12" shape="526.29,190.60 529.64,191.54"/>
    </edge>
    <edge id=":1314857999_0" function="internal">
        <lane id=":1314857999_0_0" index="0" disallow="tram rail_urban rail rail_electric rail_fast ship" speed="13.89" length="13.47" shape="325.80,66.86 322.41,67.77 319.26,68.48 316.10,69.09 312.64,69.74"/>
    </edge>
    <edge id=":1314857999_1" function="internal">
        <lane id=":1314857999_1_0" index="0" disallow="tram rail_urban rail rail_electric rail_fast ship" speed="6.45" length="8.82" shape="322.62,76.64 322.31,74.32 322.86,72.44 324.28,70.99 326.55,69.97"/>
    </edge>
    <edge id=":1314857999_2" function="internal">
        <lane id=":1314857999_2_0" index="0" disallow="tram rail_urban rail rail_electric rail_fast ship" speed="7.35" length="10.95" shape="319.42,77.11 318.10,73.57 316.53,71.17 314.71,69.89 312.64,69.74"/>
    </edge>
    <edge id=":1314857999_3" function="internal">
        <lane id=":1314857999_3_0" index="0" disallow="tram rail_urban rail rail_electric rail_fast ship" speed="13.89" length="13.63" shape="313.25,72.89 316.72,72.23 319.94,71.61 323.14,70.89 326.55,69.97"/>
    </edge>
    <edge id=":1782398102_0" function="internal">
        <lane id=":1782398102_0_0" index="0" allow="private emergency authority army vip passenger hov taxi bus coach delivery truck trailer motorcycle evehicle custom1 custom2" speed="25.00" length="8.15" shape="806.03,248.94 803.84,248.09 802.48,247.14 801.13,246.16 798.96,245.24"/>
        <lane id=":1782398102_0_1" index="1" allow="private emergency authority army vip passenger hov taxi bus coach delivery truck trailer motorcycle evehicle custom1 custom2" speed="25.00" length="8.15" shape="806.03,248.94 803.69,248.56 802.02,248.67 800.35,248.75 798.02,248.30"/>
        <lane id=":1782398102_0_2" index="2" allow="private emergency authority army vip passenger hov taxi bus coach delivery truck trailer motorcycle evehicle custom1 custom2" speed="25.00" length="8.15" shape="805.20,252.03 802.82,251.64 801.13,251.74 799.45,251.82 797.09,251.36"/>
        <lane id=":1782398102_0_3" index="3" allow="private emergency authority army vip passenger hov taxi bus coach delivery truck trailer motorcycle evehicle custom1 custom2" speed="25.00" length="8.15" shape="804.36,255.12 801.96,254.72 800.25,254.82 798.54,254.89 796.16,254.42"/>
    </edge>
    <edge id=":243483962_0" function="internal">
        <lane id=":243483962_0_0" index="0" disallow="tram rail_urban rail rail_electric rail_fast ship" speed="16.67" length="8.20" shape="292.10,383.50 294.16,384.72 295.38,385.89 296.60,387.06 298.65,388.31"/>
        <lane id=":243483962_0_1" index="1" disallow="tram rail_urban rail rail_electric rail_fast ship" speed="16.67" length="8.20" shape="292.10,383.50 294.38,384.27 296.06,384.44 297.75,384.62 300.02,385.41"/>
        <lane id=":243483962_0_2" index="2" disallow="tram rail_urban rail rail_electric rail_fast ship" speed="16.67" length="8.20" shape="293.44,380.59 295.72,381.36 297.41,381.54 299.10,381.72 301.38,382.52"/>
    </edge>
    <edge id=":243492347_0" function="internal">
        <lane id=":243492347_0_0" index="0" allow="private emergency authority army vip passenger hov taxi bus coach delivery truck trailer motorcycle evehicle custom1 custom2" speed="15.28" length="9.63" shape="482.47,379.90 483.33,377.19 484.16,375.42 485.18,373.73 486.62,371.26"/>
    </edge>
    <edge id=":243492347_1" function="internal">
        <lane id=":243492347_1_0" index="0" allow="private emergency authority army vip passenger hov taxi bus coach delivery truck trailer motorcycle evehicle custom1 custom2" speed="15.28" length="9.86" shape="479.38,379.04 480.37,376.29 481.36,374.53 482.34,372.75 483.30,370.00"/>
        <lane id=":243492347_1_1" index="1" allow="private emergency authority army vip passenger hov taxi bus coach delivery truck trailer motorcycle evehicle custom1 custom2" speed="15.28" length="9.86" shape="476.30,378.18 477.29,375.44 478.27,373.68 479.25,371.92 480.21,369.17"/>
    </edge>
    <edge id=":243492356_0" function="internal">
        <lane id=":243492356_0_0" index="0" allow="private emergency authority army vip passenger hov taxi bus coach delivery truck trailer motorcycle evehicle custom1 custom2" speed="19.45" length="3.07" shape="251.49,127.25 254.46,128.07"/>
        <lane id=":243492356_0_1" index="1" allow="private emergency authority army vip passenger hov taxi bus coach delivery truck trailer motorcycle evehicle custom1 custom2" speed="19.45" length="3.07" shape="252.36,124.17 255.30,124.98"/>
    </edge>
    <edge id=":243492356_2" function="internal">
        <lane id=":243492356_2_0" index="0" allow="private emergency authority army vip passenger hov taxi bus coach delivery truck trailer motorcycle evehicle custom1 custom2" speed="25.00" length="3.50" shape="253.23,121.09 254.08,121.59 254.47,122.27 254.86,122.94 255.71,123.44"/>
        <lane id=":243492356_2_1" index="1" allow="private emergency authority army vip passenger hov taxi bus coach delivery truck trailer motorcycle evehicle custom1 custom2" speed="25.00" length="3.50" shape="254.10,118.01 254.94,118.50 255.32,119.18 255.70,119.86 256.55,120.35"/>
        <lane id=":243492356_2_2" index="2" allow="private emergency authority army vip passenger hov taxi bus coach delivery truck trailer motorcycle evehicle custom1 custom2" speed="25.00" length="3.50" shape="254.97,114.93 255.80,115.42 256.17,116.10 256.55,116.77 257.38,117.26"/>
    </edge>
    <edge id=":243492374_0" function="internal">
        <lane id=":243492374_0_0" index="0" allow="private emergency authority army vip passenger hov taxi bus coach delivery truck trailer motorcycle evehicle custom1 custom2" speed="13.89" length="0.10" shape="502.71,240.05 502.71,240.05"/>
        <lane id=":243492374_0_1" index="1" allow="private emergency authority army vip passenger hov taxi bus coach delivery truck trailer motorcycle evehicle custom1 custom2" speed="13.89" length="0.10" shape="505.79,240.89 505.79,240.89"/>
    </edge>
    <edge id=":243492375_0" function="internal">
        <lane id=":243492375_0_0" index="0" allow="private emergency authority army vip passenger hov taxi bus coach delivery truck trailer motorcycle evehicle custom1 custom2" speed="13.89" length="8.19" shape="535.99,124.12 535.23,126.39 534.31,127.79 533.35,129.19 532.46,131.43"/>
        <lane id=":243492375_0_1" index="1" allow="private emergency authority army vip passenger hov taxi bus coach delivery truck trailer motorcycle evehicle custom1 custom2" speed="13.89" length="8.19" shape="535.99,124.12 535.71,126.52 535.85,128.22 535.95,129.90 535.55,132.27"/>
    </edge>
    <edge id=":243492406_0" function="internal">
        <lane id=":243492406_0_0" index="0" allow="private emergency authority army vip passenger hov taxi bus coach delivery truck trailer motorcycle evehicle custom1 custom2" speed="13.89" length="7.81" shape="516.22,261.69 515.88,259.39 515.63,257.79 515.65,256.21 516.11,253.97"/>
    </edge>
    <edge id=":243492406_1" function="internal">
        <lane id=":243492406_1_0" index="0" allow="private emergency authority army vip passenger hov taxi bus coach delivery truck trailer motorcycle evehicle custom1 custom2" speed="13.89" length="8.07" shape="512.50,261.15 512.87,258.81 512.76,257.15 512.65,255.49 513.02,253.15"/>
        <lane id=":243492406_1_1" index="1" allow="private emergency authority army vip passenger hov taxi bus coach delivery truck trailer motorcycle evehicle custom1 custom2" speed="13.89" length="8.07" shape="509.41,260.32 509.78,257.99 509.67,256.33 509.56,254.67 509.93,252.33"/>
    </edge>
    <edge id=":259396978_0" function="internal">
        <lane id=":259396978_0_0" index="0" allow="private emergency authority army vip passenger hov taxi bus coach delivery truck trailer motorcycle evehicle custom1 custom2" speed="15.28" length="35.77" shape="464.79,351.23 464.56,358.91 464.28,367.16 463.31,376.23 461.01,386.39"/>
        <lane id=":259396978_0_1" index="1" allow="private emergency authority army vip passenger hov taxi bus coach delivery truck trailer motorcycle evehicle custom1 custom2" speed="15.28" length="35.77" shape="467.98,351.55 467.72,359.32 467.40,367.77 466.40,377.04 464.08,387.29"/>
    </edge>
    <edge id=":259396978_2" function="internal">
        <lane id=":259396978_2_0" index="0" allow="private emergency authority army vip passenger hov taxi bus coach delivery truck trailer motorcycle evehicle custom1 custom2" speed="15.28" length="35.93" shape="471.95,352.27 464.08,387.29"/>
        <lane id=":259396978_2_1" index="1" allow="private emergency authority army vip passenger hov taxi bus coach delivery truck trailer motorcycle evehicle custom1 custom2" speed="15.28" length="35.93" shape="475.03,353.11 467.15,388.19"/>
    </edge>
    <edge id=":259758383_0" function="internal">
        <lane id=":259758383_0_0" index="0" disallow="tram rail_urban rail rail_electric rail_fast ship" speed="3.65" length="4.67" shape="162.63,415.86 161.37,416.55 160.91,417.32 161.24,418.15 162.37,419.04"/>
    </edge>
    <edge id=":4593387855_0" function="internal">
        <lane id=":4593387855_0_0" index="0" disallow="tram rail_urban rail rail_electric rail_fast ship" speed="13.89" length="8.26" shape="229.99,377.65 229.44,380.04 228.89,381.64 228.43,383.26 228.15,385.67"/>
    </edge>
    <edge id=":4593387855_1" function="internal">
        <lane id=":4593387855_1_0" index="0" disallow="tram rail_urban rail rail_electric rail_fast ship" speed="13.89" length="7.89" shape="231.34,385.83 231.62,383.53 232.07,381.99 232.62,380.46 233.15,378.18"/>
    </edge>
    <edge id=":4593387855_2" function="internal">
        <lane id=":4593387855_2_0" index="0" disallow="tram rail_urban rail rail_electric rail_fast ship" speed="12.00" length="9.92" shape="222.87,376.13 224.38,378.59 225.02,380.51 225.11,382.58 224.95,385.52"/>
    </edge>
    <edge id=":4593387860_0" function="internal">
        <lane id=":4593387860_0_0" index="0" disallow="tram rail_urban rail rail_electric rail_fast ship" speed="16.67" length="4.34" shape="225.07,360.92 226.29,361.00 227.15,360.64 228.02,360.26 229.26,360.30"/>
    </edge>
    <edge id=":4593387860_1" function="internal">
        <lane id=":4593387860_1_0" index="0" disallow="tram rail_urban rail rail_electric rail_fast ship" speed="6.76" length="5.13" shape="225.97,357.85 227.10,358.01 228.27,357.85 229.48,357.35 230.73,356.53"/>
    </edge>
    <edge id=":4593387861_0" function="internal">
        <lane id=":4593387861_0_0" index="0" disallow="tram rail_urban rail rail_electric rail_fast ship" speed="9.83" length="8.11" shape="272.48,378.97 274.74,378.09 276.39,377.44 278.01,377.32 280.19,378.02"/>
    </edge>
    <edge id=":4593387861_1" function="internal">
        <lane id=":4593387861_1_0" index="0" disallow="tram rail_urban rail rail_electric rail_fast ship" speed="16.67" length="8.24" shape="272.63,374.89 280.19,378.02"/>
        <lane id=":4593387861_1_1" index="1" disallow="tram rail_urban rail rail_electric rail_fast ship" speed="16.67" length="8.24" shape="273.86,371.93 281.52,375.12"/>
    </edge>
    <edge id=":4684001237_0" function="internal">
        <lane id=":4684001237_0_0" index="0" disallow="tram rail_urban rail rail_electric rail_fast ship" speed="16.67" length="8.18" shape="177.54,345.82 179.72,346.78 181.05,347.80 182.38,348.83 184.55,349.83"/>
        <lane id=":4684001237_0_1" index="1" disallow="tram rail_urban rail rail_electric rail_fast ship" speed="16.67" length="8.18" shape="177.54,345.82 179.89,346.31 181.57,346.28 183.26,346.27 185.59,346.81"/>
        <lane id=":4684001237_0_2" index="2" disallow="tram rail_urban rail rail_electric rail_fast ship" speed="16.67" length="8.18" shape="178.51,342.78 180.88,343.27 182.58,343.25 184.28,343.24 186.63,343.78"/>
    </edge>
    <edge id=":4684001238_0" function="internal">
        <lane id=":4684001238_0_0" index="0" disallow="tram rail_urban rail rail_electric rail_fast ship" speed="16.67" length="8.17" shape="325.01,397.20 327.07,398.45 328.30,399.62 329.53,400.78 331.61,401.99"/>
        <lane id=":4684001238_0_1" index="1" disallow="tram rail_urban rail rail_electric rail_fast ship" speed="16.67" length="8.17" shape="326.38,394.30 328.42,395.54 329.63,396.71 330.85,397.87 332.91,399.06"/>
    </edge>
    <edge id=":565323801_0" function="internal">
        <lane id=":565323801_0_0" index="0" allow="private emergency authority army vip passenger hov taxi bus coach delivery truck trailer motorcycle evehicle custom1 custom2" speed="19.45" length="22.24" shape="788.70,241.86 781.76,239.19 776.38,236.65 772.15,234.35 768.62,232.40"/>
    </edge>
    <edge id=":565323801_1" function="internal">
        <lane id=":565323801_1_0" index="0" allow="private emergency authority army vip passenger hov taxi bus coach delivery truck trailer motorcycle evehicle custom1 custom2" speed="25.00" length="22.16" shape="787.66,244.88 781.56,242.35 777.59,240.07 773.59,237.90 767.39,235.68"/>
        <lane id=":565323801_1_1" index="1" allow="private emergency authority army vip passenger hov taxi bus coach delivery truck trailer motorcycle evehicle custom1 custom2" speed="25.00" length="22.16" shape="786.63,247.91 780.57,245.39 776.63,243.13 772.67,240.96 766.51,238.76"/>
        <lane id=":565323801_1_2" index="2" allow="private emergency authority army vip passenger hov taxi bus coach delivery truck trailer motorcycle evehicle custom1 custom2" speed="25.00" length="22.16" shape="785.59,250.94 779.58,248.44 775.67,246.18 771.74,244.02 765.63,241.83"/>
    </edge>
    <edge id=":5928055900_0" function="internal">
        <lane id=":5928055900_0_0" index="0" allow="private emergency authority army vip passenger hov taxi bus coach delivery truck trailer motorcycle evehicle custom1 custom2" speed="13.89" length="8.06" shape="390.76,71.69 388.65,72.67 387.04,72.97 385.42,73.24 383.25,74.11"/>
        <lane id=":5928055900_0_1" index="1" allow="private emergency authority army vip passenger hov taxi bus coach delivery truck trailer motorcycle evehicle custom1 custom2" speed="13.89" length="8.06" shape="390.76,71.69 388.88,73.12 387.79,74.38 386.69,75.62 384.75,76.94"/>
        <lane id=":5928055900_0_2" index="2" allow="private emergency authority army vip passenger hov taxi bus coach delivery truck trailer motorcycle evehicle custom1 custom2" speed="13.89" length="8.06" shape="392.41,74.43 390.48,75.88 389.37,77.17 388.24,78.42 386.25,79.76"/>
    </edge>
    <edge id=":5928431645_0" function="internal">
        <lane id=":5928431645_0_0" index="0" allow="private emergency authority army vip passenger hov taxi bus coach delivery truck trailer motorcycle evehicle custom1 custom2" speed="12.41" length="10.18" shape="723.16,207.19 720.82,205.45 719.63,203.78 718.88,201.74 717.86,198.88"/>
    </edge>
    <edge id=":5928431645_1" function="internal">
        <lane id=":5928431645_1_0" index="0" allow="private emergency authority army vip passenger hov taxi bus coach delivery truck trailer motorcycle evehicle custom1 custom2" speed="13.89" length="10.09" shape="723.16,207.19 720.60,205.65 718.86,204.55 717.21,203.32 714.93,201.40"/>
    </edge>
    <edge id=":5982429303_0" function="internal">
        <lane id=":5982429303_0_0" index="0" disallow="tram rail_urban rail rail_electric rail_fast ship" speed="16.67" length="8.10" shape="289.79,368.62 287.73,367.36 286.49,366.19 285.25,365.05 283.14,363.89"/>
        <lane id=":5982429303_0_1" index="1" disallow="tram rail_urban rail rail_electric rail_fast ship" speed="16.67" length="8.10" shape="288.42,371.51 286.39,370.27 285.19,369.11 283.97,367.98 281.90,366.84"/>
        <lane id=":5982429303_0_2" index="2" disallow="tram rail_urban rail rail_electric rail_fast ship" speed="16.67" length="8.10" shape="288.42,371.51 286.21,370.74 284.57,370.59 282.91,370.47 280.66,369.79"/>
    </edge>
    <edge id=":5991967497_0" function="internal">
        <lane id=":5991967497_0_0" index="0" allow="private emergency authority army vip passenger hov taxi bus coach delivery truck trailer motorcycle evehicle custom1 custom2" speed="13.89" length="8.18" shape="526.14,203.66 526.99,201.40 527.93,199.99 528.85,198.57 529.66,196.30"/>
        <lane id=":5991967497_0_1" index="1" allow="private emergency authority army vip passenger hov taxi bus coach delivery truck trailer motorcycle evehicle custom1 custom2" speed="13.89" length="8.18" shape="523.04,202.84 523.89,200.60 524.83,199.20 525.75,197.79 526.55,195.54"/>
    </edge>
    <edge id=":6135583090_0" function="internal">
        <lane id=":6135583090_0_0" index="0" disallow="tram rail_urban rail rail_electric rail_fast ship" speed="3.65" length="4.67" shape="858.36,245.83 859.73,245.38 860.33,244.72 860.16,243.84 859.22,242.75"/>
    </edge>
    <edge id=":6142581589_0" function="internal">
        <lane id=":6142581589_0_0" index="0" allow="private emergency authority army vip passenger hov taxi bus coach delivery truck trailer motorcycle evehicle custom1 custom2" speed="25.00" length="8.20" shape="465.20,180.59 467.44,181.73 468.64,183.19 469.83,184.66 472.08,185.79"/>
        <lane id=":6142581589_0_1" index="1" allow="private emergency authority army vip passenger hov taxi bus coach delivery truck trailer motorcycle evehicle custom1 custom2" speed="25.00" length="8.20" shape="465.20,180.59 472.92,182.70"/>
        <lane id=":6142581589_0_2" index="2" allow="private emergency authority army vip passenger hov taxi bus coach delivery truck trailer motorcycle evehicle custom1 custom2" speed="25.00" length="8.20" shape="466.04,177.51 473.76,179.62"/>
        <lane id=":6142581589_0_3" index="3" allow="private emergency authority army vip passenger hov taxi bus coach delivery truck trailer motorcycle evehicle custom1 custom2" speed="25.00" length="8.20" shape="466.88,174.42 474.60,176.53"/>
    </edge>
    <edge id=":6142810638_0" function="internal">
        <lane id=":6142810638_0_0" index="0" allow="private emergency authority army vip passenger hov taxi bus coach delivery truck trailer motorcycle evehicle custom1 custom2" speed="25.00" length="8.51" shape="193.87,105.96 196.13,107.38 197.06,109.36 198.00,111.34 200.26,112.76"/>
        <lane id=":6142810638_0_1" index="1" allow="private emergency authority army vip passenger hov taxi bus coach delivery truck trailer motorcycle evehicle custom1 custom2" speed="25.00" length="8.51" shape="193.87,105.96 196.11,106.86 197.50,107.82 198.89,108.79 201.13,109.68"/>
        <lane id=":6142810638_0_2" index="2" allow="private emergency authority army vip passenger hov taxi bus coach delivery truck trailer motorcycle evehicle custom1 custom2" speed="25.00" length="8.51" shape="193.87,105.96 196.24,106.37 197.94,106.28 199.63,106.19 202.00,106.60"/>
        <lane id=":6142810638_0_3" index="3" allow="private emergency authority army vip passenger hov taxi bus coach delivery truck trailer motorcycle evehicle custom1 custom2" speed="25.00" length="8.51" shape="194.74,102.88 197.11,103.29 198.80,103.20 200.50,103.11 202.87,103.52"/>
        <lane id=":6142810638_0_4" index="4" allow="private emergency authority army vip passenger hov taxi bus coach delivery truck trailer motorcycle evehicle custom1 custom2" speed="25.00" length="8.51" shape="195.60,99.80 197.98,100.21 199.67,100.12 201.37,100.03 203.74,100.44"/>
    </edge>
    <edge id=":6332220596_0" function="internal">
        <lane id=":6332220596_0_0" index="0" disallow="tram rail_urban rail rail_electric rail_fast ship" speed="3.65" length="4.67" shape="139.31,44.58 137.97,45.11 137.41,45.80 137.63,46.67 138.63,47.70"/>
    </edge>
    <edge id=":6585263033_0" function="internal">
        <lane id=":6585263033_0_0" index="0" disallow="tram rail_urban rail rail_electric rail_fast ship" speed="16.67" length="5.91" shape="233.67,347.42 228.02,345.62"/>
        <lane id=":6585263033_0_1" index="1" disallow="tram rail_urban rail rail_electric rail_fast ship" speed="16.67" length="5.91" shape="232.69,350.46 227.07,348.68"/>
    </edge>
    <edge id=":6585263033_2" function="internal">
        <lane id=":6585263033_2_0" index="0" disallow="tram rail_urban rail rail_electric rail_fast ship" speed="6.42" length="8.06" shape="231.21,354.61 231.28,352.60 230.61,350.94 229.21,349.63 227.07,348.68"/>
    </edge>
    <edge id=":6775411358_0" function="internal">