<?xml version="1.0" encoding="UTF-8"?>

<!-- generated on 2023-07-14 10:40:43 by Eclipse SUMO netconvert Version 1.17.0
<configuration xmlns:xsi="http://www.w3.org/2001/XMLSchema-instance" xsi:noNamespaceSchemaLocation="http://sumo.dlr.de/xsd/netconvertConfiguration.xsd">

    <input>
        <sumo-net-file value="osm.net.xml.gz"/>
    </input>

    <output>
        <output-file value="osm.net.xml"/>
        <output.street-names value="true"/>
    </output>

    <processing>
        <geometry.min-radius.fix.railways value="false"/>
        <geometry.max-grade.fix value="false"/>
        <offset.disable-normalization value="true"/>
        <lefthand value="1"/>
    </processing>

    <junctions>
        <no-turnarounds value="true"/>
        <junctions.corner-detail value="5"/>
        <junctions.limit-turn-speed value="5.50"/>
        <rectangular-lane-cut value="0"/>
    </junctions>

    <pedestrian>
        <walkingareas value="0"/>
    </pedestrian>

</configuration>
-->

<net version="1.16" junctionCornerDetail="5" lefthand="true" limitTurnSpeed="5.50" xmlns:xsi="http://www.w3.org/2001/XMLSchema-instance" xsi:noNamespaceSchemaLocation="http://sumo.dlr.de/xsd/net_file.xsd">

    <location netOffset="-368186.23,-155691.86" convBoundary="0.00,0.00,1431.33,663.99" origBoundary="103.815150,1.408290,103.828015,1.414296" projParameter="+proj=utm +zone=48 +ellps=WGS84 +datum=WGS84 +units=m +no_defs"/>

    <type id="highway.bridleway" priority="1" numLanes="1" speed="2.78" allow="pedestrian" oneway="1" width="2.00"/>
    <type id="highway.bus_guideway" priority="1" numLanes="1" speed="27.78" allow="bus" oneway="1"/>
    <type id="highway.cycleway" priority="1" numLanes="1" speed="5.56" allow="bicycle" oneway="0" width="1.00"/>
    <type id="highway.footway" priority="1" numLanes="1" speed="2.78" allow="pedestrian" oneway="1" width="2.00"/>
    <type id="highway.ford" priority="1" numLanes="1" speed="2.78" allow="army" oneway="0"/>
    <type id="highway.living_street" priority="2" numLanes="1" speed="2.78" disallow="tram rail_urban rail rail_electric rail_fast ship" oneway="0"/>
    <type id="highway.motorway" priority="14" numLanes="2" speed="39.44" allow="private emergency authority army vip passenger hov taxi bus coach delivery truck trailer motorcycle evehicle custom1 custom2" oneway="1"/>
    <type id="highway.motorway_link" priority="9" numLanes="1" speed="22.22" allow="private emergency authority army vip passenger hov taxi bus coach delivery truck trailer motorcycle evehicle custom1 custom2" oneway="1"/>
    <type id="highway.path" priority="1" numLanes="1" speed="5.56" allow="pedestrian bicycle" oneway="0" width="2.00"/>
    <type id="highway.pedestrian" priority="1" numLanes="1" speed="2.78" allow="pedestrian" oneway="1" width="2.00"/>
    <type id="highway.primary" priority="12" numLanes="2" speed="27.78" disallow="tram rail_urban rail rail_electric rail_fast ship" oneway="0"/>
    <type id="highway.primary_link" priority="7" numLanes="1" speed="22.22" disallow="tram rail_urban rail rail_electric rail_fast ship" oneway="0"/>
    <type id="highway.raceway" priority="15" numLanes="2" speed="83.33" allow="vip" oneway="0"/>
    <type id="highway.residential" priority="3" numLanes="1" speed="13.89" disallow="tram rail_urban rail rail_electric rail_fast ship" oneway="0"/>
    <type id="highway.secondary" priority="11" numLanes="1" speed="27.78" disallow="tram rail_urban rail rail_electric rail_fast ship" oneway="0"/>
    <type id="highway.secondary_link" priority="6" numLanes="1" speed="22.22" disallow="tram rail_urban rail rail_electric rail_fast ship" oneway="0"/>
    <type id="highway.service" priority="1" numLanes="1" speed="5.56" allow="pedestrian delivery bicycle" oneway="0"/>
    <type id="highway.stairs" priority="1" numLanes="1" speed="1.39" allow="pedestrian" oneway="1" width="2.00"/>
    <type id="highway.step" priority="1" numLanes="1" speed="1.39" allow="pedestrian" oneway="1" width="2.00"/>
    <type id="highway.steps" priority="1" numLanes="1" speed="1.39" allow="pedestrian" oneway="1" width="2.00"/>
    <type id="highway.tertiary" priority="10" numLanes="1" speed="22.22" disallow="tram rail_urban rail rail_electric rail_fast ship" oneway="0"/>
    <type id="highway.tertiary_link" priority="5" numLanes="1" speed="22.22" disallow="tram rail_urban rail rail_electric rail_fast ship" oneway="0"/>
    <type id="highway.track" priority="1" numLanes="1" speed="5.56" allow="pedestrian motorcycle moped bicycle" oneway="0"/>
    <type id="highway.trunk" priority="13" numLanes="2" speed="27.78" disallow="pedestrian bicycle tram rail_urban rail rail_electric rail_fast ship" oneway="0"/>
    <type id="highway.trunk_link" priority="8" numLanes="1" speed="22.22" disallow="pedestrian bicycle tram rail_urban rail rail_electric rail_fast ship" oneway="0"/>
    <type id="highway.unclassified" priority="4" numLanes="1" speed="13.89" disallow="tram rail_urban rail rail_electric rail_fast ship" oneway="0"/>
    <type id="highway.unsurfaced" priority="1" numLanes="1" speed="8.33" disallow="tram rail_urban rail rail_electric rail_fast ship" oneway="0"/>
    <type id="railway.highspeed" priority="21" numLanes="1" speed="69.44" allow="rail_fast" oneway="1"/>
    <type id="railway.light_rail" priority="19" numLanes="1" speed="27.78" allow="rail_urban" oneway="1"/>
    <type id="railway.preserved" priority="16" numLanes="1" speed="27.78" allow="rail" oneway="1"/>
    <type id="railway.rail" priority="20" numLanes="1" speed="44.44" allow="rail" oneway="1"/>
    <type id="railway.subway" priority="18" numLanes="1" speed="27.78" allow="rail_urban" oneway="1"/>
    <type id="railway.tram" priority="17" numLanes="1" speed="13.89" allow="tram" oneway="1"/>

    <edge id=":244954947_0" function="internal">
        <lane id=":244954947_0_0" index="0" disallow="tram rail_urban rail rail_electric rail_fast ship" speed="8.37" length="4.49" shape="848.04,606.25 849.23,605.69 850.12,605.48 851.05,605.51 852.36,605.71"/>
    </edge>
    <edge id=":244954947_1" function="internal">
        <lane id=":244954947_1_0" index="0" disallow="tram rail_urban rail rail_electric rail_fast ship" speed="19.44" length="5.02" shape="846.56,603.41 848.02,602.83 849.11,602.64 850.18,602.42 851.59,601.75"/>
        <lane id=":244954947_1_1" index="1" disallow="tram rail_urban rail rail_electric rail_fast ship" speed="19.44" length="5.02" shape="845.09,600.57 846.49,600.02 847.54,599.85 848.57,599.65 849.93,599.02"/>
        <lane id=":244954947_1_2" index="2" disallow="tram rail_urban rail rail_electric rail_fast ship" speed="19.44" length="5.02" shape="843.61,597.74 844.96,597.21 845.97,597.06 846.97,596.88 848.27,596.28"/>
        <lane id=":244954947_1_3" index="3" disallow="tram rail_urban rail rail_electric rail_fast ship" speed="19.44" length="5.02" shape="842.13,594.90 843.42,594.40 844.40,594.27 845.36,594.11 846.61,593.54"/>
    </edge>
    <edge id=":4594224411_0" function="internal">
        <lane id=":4594224411_0_0" index="0" disallow="tram rail_urban rail rail_electric rail_fast ship" speed="10.64" length="7.93" shape="863.93,540.13 864.40,542.39 864.37,544.01 863.88,545.59 862.95,547.74"/>
    </edge>
    <edge id=":4594224411_1" function="internal">
        <lane id=":4594224411_1_0" index="0" disallow="tram rail_urban rail rail_electric rail_fast ship" speed="19.44" length="7.44" shape="867.02,539.32 867.22,541.42 866.84,542.89 866.42,544.38 866.54,546.49"/>
        <lane id=":4594224411_1_1" index="1" disallow="tram rail_urban rail rail_electric rail_fast ship" speed="19.44" length="7.44" shape="870.12,538.51 870.33,540.64 869.94,542.14 869.54,543.65 869.67,545.79"/>
        <lane id=":4594224411_1_2" index="2" disallow="tram rail_urban rail rail_electric rail_fast ship" speed="19.44" length="7.44" shape="873.21,537.70 873.43,539.86 873.05,541.38 872.65,542.91 872.79,545.08"/>
        <lane id=":4594224411_1_3" index="3" disallow="tram rail_urban rail rail_electric rail_fast ship" speed="19.44" length="7.44" shape="876.31,536.89 876.53,539.08 876.16,540.62 875.77,542.17 875.91,544.38"/>
    </edge>
    <edge id=":4594224412_0" function="internal">
        <lane id=":4594224412_0_0" index="0" disallow="tram rail_urban rail rail_electric rail_fast ship" speed="10.88" length="8.03" shape="887.09,517.08 885.10,515.74 883.65,514.79 882.58,513.58 881.75,511.46"/>
    </edge>
    <edge id=":4594224412_1" function="internal">
        <lane id=":4594224412_1_0" index="0" disallow="tram rail_urban rail rail_electric rail_fast ship" speed="19.44" length="8.05" shape="883.76,519.30 881.75,511.46"/>
        <lane id=":4594224412_1_1" index="1" disallow="tram rail_urban rail rail_electric rail_fast ship" speed="19.44" length="8.05" shape="880.66,520.11 878.66,512.31"/>
        <lane id=":4594224412_1_2" index="2" disallow="tram rail_urban rail rail_electric rail_fast ship" speed="19.44" length="8.05" shape="877.56,520.92 875.58,513.16"/>
    </edge>
    <edge id=":4594224417_0" function="internal">
        <lane id=":4594224417_0_0" index="0" disallow="tram rail_urban rail rail_electric rail_fast ship" speed="9.71" length="5.38" shape="914.39,526.42 913.05,527.23 912.01,527.56 910.89,527.62 909.29,527.62"/>
    </edge>
    <edge id=":4594224417_1" function="internal">
        <lane id=":4594224417_1_0" index="0" disallow="tram rail_urban rail rail_electric rail_fast ship" speed="19.44" length="5.47" shape="916.22,529.04 914.78,529.84 913.68,530.18 912.58,530.53 911.16,531.35"/>
        <lane id=":4594224417_1_1" index="1" disallow="tram rail_urban rail rail_electric rail_fast ship" speed="19.44" length="5.47" shape="918.05,531.67 916.63,532.46 915.53,532.79 914.44,533.13 913.04,533.94"/>
        <lane id=":4594224417_1_2" index="2" disallow="tram rail_urban rail rail_electric rail_fast ship" speed="19.44" length="5.47" shape="919.88,534.29 918.47,535.07 917.39,535.39 916.31,535.73 914.92,536.53"/>
        <lane id=":4594224417_1_3" index="3" disallow="tram rail_urban rail rail_electric rail_fast ship" speed="19.44" length="5.47" shape="921.71,536.91 920.32,537.69 919.25,538.00 918.18,538.32 916.80,539.12"/>
        <lane id=":4594224417_1_4" index="4" disallow="tram rail_urban rail rail_electric rail_fast ship" speed="19.44" length="5.47" shape="923.54,539.54 922.17,540.30 921.10,540.61 920.04,540.92 918.68,541.71"/>
    </edge>
    <edge id=":4594226906_0" function="internal">
        <lane id=":4594226906_0_0" index="0" disallow="tram rail_urban rail rail_electric rail_fast ship" speed="12.81" length="15.12" shape="877.79,613.46 880.74,615.39 883.25,617.56 885.26,620.56 886.75,624.98"/>
    </edge>
    <edge id=":4594226906_1" function="internal">
        <lane id=":4594226906_1_0" index="0" disallow="tram rail_urban rail rail_electric rail_fast ship" speed="19.44" length="15.28" shape="883.01,610.25 886.75,624.98"/>
        <lane id=":4594226906_1_1" index="1" disallow="tram rail_urban rail rail_electric rail_fast ship" speed="19.44" length="15.28" shape="886.11,609.47 889.87,624.28"/>
        <lane id=":4594226906_1_2" index="2" disallow="tram rail_urban rail rail_electric rail_fast ship" speed="19.44" length="15.28" shape="889.22,608.70 892.99,623.58"/>
    </edge>
    <edge id=":4594226907_0" function="internal">
        <lane id=":4594226907_0_0" index="0" disallow="tram rail_urban rail rail_electric rail_fast ship" speed="16.66" length="15.21" shape="852.95,568.50 851.40,571.65 849.82,574.57 847.47,577.35 843.60,580.08"/>
    </edge>
    <edge id=":4594226907_1" function="internal">
        <lane id=":4594226907_1_0" index="0" disallow="tram rail_urban rail rail_electric rail_fast ship" speed="19.44" length="15.39" shape="856.62,572.09 843.60,580.08"/>
        <lane id=":4594226907_1_1" index="1" disallow="tram rail_urban rail rail_electric rail_fast ship" speed="19.44" length="15.39" shape="858.29,574.82 845.17,582.87"/>
        <lane id=":4594226907_1_2" index="2" disallow="tram rail_urban rail rail_electric rail_fast ship" speed="19.44" length="15.39" shape="859.95,577.55 846.73,585.66"/>
    </edge>
    <edge id=":4600384361_0" function="internal">
        <lane id=":4600384361_0_0" index="0" disallow="tram rail_urban rail rail_electric rail_fast ship" speed="16.66" length="16.67" shape="915.54,562.09 917.31,558.96 919.10,555.83 921.63,552.56 925.62,549.02"/>
    </edge>
    <edge id=":4600384361_1" function="internal">
        <lane id=":4600384361_1_0" index="0" disallow="tram rail_urban rail rail_electric rail_fast ship" speed="19.44" length="16.73" shape="912.14,558.95 925.62,549.02"/>
        <lane id=":4600384361_1_1" index="1" disallow="tram rail_urban rail rail_electric rail_fast ship" speed="19.44" length="16.73" shape="910.23,556.38 923.70,546.46"/>
        <lane id=":4600384361_1_2" index="2" disallow="tram rail_urban rail rail_electric rail_fast ship" speed="19.44" length="16.73" shape="908.31,553.82 921.77,543.90"/>
    </edge>
    <edge id=":4600384364_0" function="internal">
        <lane id=":4600384364_0_0" index="0" disallow="tram rail_urban rail rail_electric rail_fast ship" speed="14.21" length="7.93" shape="905.73,595.07 905.33,592.81 905.47,591.22 905.95,589.62 906.59,587.34"/>
    </edge>
    <edge id=":4600384364_1" function="internal">
        <lane id=":4600384364_1_0" index="0" disallow="tram rail_urban rail rail_electric rail_fast ship" speed="19.44" length="8.85" shape="902.64,595.89 902.34,593.40 902.67,591.63 903.03,589.86 902.81,587.35"/>
        <lane id=":4600384364_1_1" index="1" disallow="tram rail_urban rail rail_electric rail_fast ship" speed="19.44" length="8.85" shape="899.55,596.71 899.24,594.19 899.56,592.40 899.91,590.60 899.69,588.06"/>
        <lane id=":4600384364_1_2" index="2" disallow="tram rail_urban rail rail_electric rail_fast ship" speed="19.44" length="8.85" shape="896.45,597.53 896.13,594.97 896.45,593.16 896.80,591.34 896.57,588.77"/>
        <lane id=":4600384364_1_3" index="3" disallow="tram rail_urban rail rail_electric rail_fast ship" speed="19.44" length="8.85" shape="893.36,598.35 893.03,595.76 893.35,593.93 893.69,592.09 893.45,589.48"/>
        <lane id=":4600384364_1_4" index="4" disallow="tram rail_urban rail rail_electric rail_fast ship" speed="19.44" length="8.85" shape="890.27,599.16 889.93,596.55 890.24,594.69 890.58,592.83 890.33,590.19"/>
    </edge>
    <edge id=":5892451188_0" function="internal">
        <lane id=":5892451188_0_0" index="0" disallow="tram rail_urban rail rail_electric rail_fast ship" speed="19.44" length="8.17" shape="957.05,498.49 955.01,499.67 953.42,500.14 951.83,500.59 949.76,501.73"/>
        <lane id=":5892451188_0_1" index="1" disallow="tram rail_urban rail rail_electric rail_fast ship" speed="19.44" length="8.17" shape="957.05,498.49 955.29,500.08 954.34,501.45 953.38,502.80 951.59,504.36"/>
        <lane id=":5892451188_0_2" index="2" disallow="tram rail_urban rail rail_electric rail_fast ship" speed="19.44" length="8.17" shape="958.94,501.07 957.17,502.68 956.20,504.05 955.23,505.42 953.42,506.98"/>
        <lane id=":5892451188_0_3" index="3" disallow="tram rail_urban rail rail_electric rail_fast ship" speed="19.44" length="8.17" shape="960.83,503.66 959.04,505.27 958.06,506.66 957.07,508.03 955.26,509.60"/>
        <lane id=":5892451188_0_4" index="4" disallow="tram rail_urban rail rail_electric rail_fast ship" speed="19.44" length="8.17" shape="962.72,506.24 960.91,507.87 959.92,509.26 958.92,510.64 957.09,512.23"/>
        <lane id=":5892451188_0_5" index="5" disallow="tram rail_urban rail rail_electric rail_fast ship" speed="19.44" length="8.17" shape="964.61,508.82 962.79,510.46 961.78,511.86 960.77,513.25 958.92,514.85"/>
    </edge>
    <edge id=":6246468946_0" function="internal">
        <lane id=":6246468946_0_0" index="0" disallow="tram rail_urban rail rail_electric rail_fast ship" speed="19.44" length="7.32" shape="792.05,631.21 794.47,630.89 796.27,631.36 798.03,631.74 800.32,631.11"/>
        <lane id=":6246468946_0_1" index="1" disallow="tram rail_urban rail rail_electric rail_fast ship" speed="19.44" length="7.32" shape="792.05,631.21 794.12,630.47 795.53,629.92 796.89,629.28 798.84,628.27"/>
        <lane id=":6246468946_0_2" index="2" disallow="tram rail_urban rail rail_electric rail_fast ship" speed="19.44" length="7.32" shape="791.00,628.19 792.94,627.50 794.25,626.98 795.53,626.38 797.37,625.43"/>
        <lane id=":6246468946_0_3" index="3" disallow="tram rail_urban rail rail_electric rail_fast ship" speed="19.44" length="7.32" shape="789.94,625.17 791.76,624.52 792.98,624.04 794.18,623.48 795.89,622.59"/>
        <lane id=":6246468946_0_4" index="4" disallow="tram rail_urban rail rail_electric rail_fast ship" speed="19.44" length="7.32" shape="789.94,625.17 791.60,624.06 792.25,622.64 792.86,621.12 794.41,619.76"/>
    </edge>
    <edge id=":cluster_244316748_244316749_244316873_244316945_0" function="internal">
        <lane id=":cluster_244316748_244316749_244316873_244316945_0_0" index="0" disallow="tram rail_urban rail rail_electric rail_fast ship" speed="19.44" length="45.56" shape="895.96,542.47 860.16,569.93"/>
        <lane id=":cluster_244316748_244316749_244316873_244316945_0_1" index="1" disallow="tram rail_urban rail rail_electric rail_fast ship" speed="19.44" length="45.56" shape="897.96,544.98 861.79,572.69"/>
        <lane id=":cluster_244316748_244316749_244316873_244316945_0_2" index="2" disallow="tram rail_urban rail rail_electric rail_fast ship" speed="19.44" length="45.56" shape="899.95,547.49 863.42,575.44"/>
    </edge>
    <edge id=":cluster_244316748_244316749_244316873_244316945_3" function="internal">
        <lane id=":cluster_244316748_244316749_244316873_244316945_3_0" index="0" disallow="tram rail_urban rail rail_electric rail_fast ship" speed="17.26" length="49.22" shape="901.95,549.99 890.94,559.72 883.88,569.89 880.77,580.50 881.62,591.56"/>
        <lane id=":cluster_244316748_244316749_244316873_244316945_3_1" index="1" disallow="tram rail_urban rail rail_electric rail_fast ship" speed="16.61" length="45.55" shape="903.94,552.50 893.61,561.57 886.97,570.98 884.01,580.72 884.73,590.79"/>
    </edge>
    <edge id=":cluster_244316748_244316749_244316873_244316945_5" function="internal">
        <lane id=":cluster_244316748_244316749_244316873_244316945_5_0" index="0" disallow="tram rail_urban rail rail_electric rail_fast ship" speed="3.82" length="5.34" shape="903.94,552.50 903.44,554.07 903.65,555.07 904.58,555.50 906.22,555.36"/>
    </edge>
    <edge id=":cluster_244316748_244316749_244316873_244316945_6" function="internal">
        <lane id=":cluster_244316748_244316749_244316873_244316945_6_0" index="0" disallow="tram rail_urban rail rail_electric rail_fast ship" speed="19.44" length="48.26" shape="902.59,586.39 889.17,540.08"/>
        <lane id=":cluster_244316748_244316749_244316873_244316945_6_1" index="1" disallow="tram rail_urban rail rail_electric rail_fast ship" speed="19.44" length="48.26" shape="899.48,587.15 886.05,540.80"/>
        <lane id=":cluster_244316748_244316749_244316873_244316945_6_2" index="2" disallow="tram rail_urban rail rail_electric rail_fast ship" speed="19.44" length="48.26" shape="896.37,587.92 882.93,541.52"/>
    </edge>
    <edge id=":cluster_244316748_244316749_244316873_244316945_9" function="internal">
        <lane id=":cluster_244316748_244316749_244316873_244316945_9_0" index="0" disallow="tram rail_urban rail rail_electric rail_fast ship" speed="12.33" length="43.83" shape="893.26,588.69 888.86,576.68 882.17,569.68 873.16,568.19 861.79,572.69"/>
        <lane id=":cluster_244316748_244316749_244316873_244316945_9_1" index="1" disallow="tram rail_urban rail rail_electric rail_fast ship" speed="11.43" length="37.47" shape="890.16,589.45 886.42,579.14 880.76,573.04 873.11,571.65 863.42,575.44"/>
    </edge>
    <edge id=":cluster_244316748_244316749_244316873_244316945_11" function="internal">
        <lane id=":cluster_244316748_244316749_244316873_244316945_11_0" index="0" disallow="tram rail_urban rail rail_electric rail_fast ship" speed="4.48" length="8.17" shape="890.16,589.45 888.30,587.75 886.77,587.41 885.58,588.42 884.73,590.79"/>
    </edge>
    <edge id=":cluster_244316748_244316749_244316873_244316945_12" function="internal">
        <lane id=":cluster_244316748_244316749_244316873_244316945_12_0" index="0" disallow="tram rail_urban rail rail_electric rail_fast ship" speed="19.44" length="47.86" shape="871.75,589.51 883.29,581.86 892.88,574.41 901.51,567.22 910.21,560.37"/>
        <lane id=":cluster_244316748_244316749_244316873_244316945_12_1" index="1" disallow="tram rail_urban rail rail_electric rail_fast ship" speed="19.44" length="47.86" shape="870.12,586.76 881.60,579.15 891.06,571.78 899.58,564.68 908.22,557.86"/>
        <lane id=":cluster_244316748_244316749_244316873_244316945_12_2" index="2" disallow="tram rail_urban rail rail_electric rail_fast ship" speed="19.44" length="47.86" shape="868.49,584.00 879.92,576.43 889.25,569.15 897.64,562.13 906.22,555.36"/>
    </edge>
    <edge id=":cluster_244316748_244316749_244316873_244316945_15" function="internal">
        <lane id=":cluster_244316748_244316749_244316873_244316945_15_0" index="0" disallow="tram rail_urban rail rail_electric rail_fast ship" speed="16.27" length="48.41" shape="866.86,581.25 877.70,572.93 884.51,563.42 887.30,552.71 886.05,540.80"/>
        <lane id=":cluster_244316748_244316749_244316873_244316945_15_1" index="1" disallow="tram rail_urban rail rail_electric rail_fast ship" speed="15.93" length="46.37" shape="866.86,581.25 876.43,573.62 882.30,564.46 884.47,553.76 882.93,541.52"/>
    </edge>
    <edge id=":cluster_244316748_244316749_244316873_244316945_17" function="internal">
        <lane id=":cluster_244316748_244316749_244316873_244316945_17_0" index="0" disallow="tram rail_urban rail rail_electric rail_fast ship" speed="4.82" length="9.86" shape="866.86,581.25 868.18,578.51 868.04,576.63 866.46,575.60 863.42,575.44"/>
    </edge>
    <edge id=":cluster_244316748_244316749_244316873_244316945_18" function="internal">
        <lane id=":cluster_244316748_244316749_244316873_244316945_18_0" index="0" disallow="tram rail_urban rail rail_electric rail_fast ship" speed="19.44" length="47.11" shape="866.59,546.69 878.52,592.33"/>
        <lane id=":cluster_244316748_244316749_244316873_244316945_18_1" index="1" disallow="tram rail_urban rail rail_electric rail_fast ship" speed="19.44" length="47.11" shape="869.71,545.98 881.62,591.56"/>
        <lane id=":cluster_244316748_244316749_244316873_244316945_18_2" index="2" disallow="tram rail_urban rail rail_electric rail_fast ship" speed="19.44" length="47.11" shape="872.83,545.28 884.73,590.79"/>
    </edge>
    <edge id=":cluster_244316748_244316749_244316873_244316945_21" function="internal">
        <lane id=":cluster_244316748_244316749_244316873_244316945_21_0" index="0" disallow="tram rail_urban rail rail_electric rail_fast ship" speed="12.01" length="43.91" shape="875.95,544.57 880.55,556.25 887.79,562.62 897.17,563.29 908.22,557.86"/>
        <lane id=":cluster_244316748_244316749_244316873_244316945_21_1" index="1" disallow="tram rail_urban rail rail_electric rail_fast ship" speed="11.54" length="40.44" shape="875.95,544.57 880.27,555.10 887.13,560.47 895.96,560.58 906.22,555.36"/>
    </edge>
    <edge id=":cluster_244316748_244316749_244316873_244316945_23" function="internal">
        <lane id=":cluster_244316748_244316749_244316873_244316945_23_0" index="0" disallow="tram rail_urban rail rail_electric rail_fast ship" speed="5.09" length="11.13" shape="875.95,544.57 878.84,546.43 880.97,546.54 882.33,544.90 882.93,541.52"/>
    </edge>

    <edge id="22789224" from="4600384361" to="244895680" name="Yishun Avenue 1" priority="12" type="highway.primary" spreadType="center" shape="927.00,543.98 1026.50,469.33 1189.20,355.10 1310.72,289.74 1431.33,243.16">
        <lane id="22789224_0" index="0" disallow="tram rail_urban rail rail_electric rail_fast ship" speed="19.44" length="594.59" shape="925.62,549.02 1028.38,471.92 1190.88,357.83 1312.06,292.65 1432.48,246.15">
            <param key="origId" value="22789224"/>
        </lane>
        <lane id="22789224_1" index="1" disallow="tram rail_urban rail rail_electric rail_fast ship" speed="19.44" length="594.59" shape="923.70,546.46 1026.50,469.33 1189.20,355.10 1310.72,289.74 1431.33,243.16">
            <param key="origId" value="22789224"/>
        </lane>
        <lane id="22789224_2" index="2" disallow="tram rail_urban rail rail_electric rail_fast ship" speed="19.44" length="594.59" shape="921.77,543.90 1024.62,466.74 1187.52,352.37 1309.38,286.83 1430.18,240.17">
            <param key="origId" value="22789224"/>
        </lane>
    </edge>
    <edge id="464289056" from="244954947" to="4594226906" priority="7" type="highway.primary_link" spreadType="center" shape="839.22,603.63 854.80,606.10 861.39,607.26 867.57,608.75 873.91,610.99 881.82,616.03 890.24,625.94">
        <lane id="464289056_0" index="0" disallow="tram rail_urban rail rail_electric rail_fast ship" speed="13.89" length="26.84" shape="852.36,605.71 854.80,606.10 861.39,607.26 867.57,608.75 873.91,610.99 877.79,613.46">
            <param key="origId" value="464289056"/>
        </lane>
    </edge>
    <edge id="464289057" from="4594224411" to="4594226907" priority="7" type="highway.primary_link" spreadType="center" shape="867.53,528.61 863.18,547.21 858.08,559.04 851.67,570.86 844.17,583.43">
        <lane id="464289057_0" index="0" disallow="tram rail_urban rail rail_electric rail_fast ship" speed="13.89" length="23.06" shape="862.95,547.74 858.08,559.04 852.95,568.50">
            <param key="origId" value="464289057"/>
        </lane>
    </edge>
    <edge id="464289058" from="4594224417" to="4594224412" priority="7" type="highway.primary_link" spreadType="center" shape="940.37,518.04 917.92,527.46 907.45,527.65 898.94,525.65 890.87,519.97 878.08,510.21">
        <lane id="464289058_0" index="0" disallow="tram rail_urban rail rail_electric rail_fast ship" speed="13.89" length="25.21" shape="909.29,527.62 907.45,527.65 898.94,525.65 890.87,519.97 887.09,517.08">
            <param key="origId" value="464289058"/>
        </lane>
    </edge>
    <edge id="465004143" from="4600384364" to="4600384361" priority="7" type="highway.primary_link" spreadType="center" shape="901.42,610.05 907.60,582.92 914.75,563.34 927.00,543.98">
        <lane id="465004143_0" index="0" disallow="tram rail_urban rail rail_electric rail_fast ship" speed="13.89" length="26.86" shape="906.59,587.34 907.60,582.92 914.75,563.34 915.54,562.09">
            <param key="origId" value="465004143"/>
        </lane>
    </edge>
    <edge id="480657117#0" from="4594224411" to="cluster_244316748_244316749_244316873_244316945" name="Sembawang Road" priority="12" type="highway.primary" spreadType="center" shape="867.53,528.61 873.76,556.97 875.41,564.62">
        <lane id="480657117#0_0" index="0" disallow="tram rail_urban rail rail_electric rail_fast ship" speed="19.44" length="0.20" shape="866.54,546.49 866.59,546.69">
            <param key="origId" value="480657117"/>
        </lane>
        <lane id="480657117#0_1" index="1" disallow="tram rail_urban rail rail_electric rail_fast ship" speed="19.44" length="0.20" shape="869.67,545.79 869.71,545.98">
            <param key="origId" value="480657117"/>
        </lane>
        <lane id="480657117#0_2" index="2" disallow="tram rail_urban rail rail_electric rail_fast ship" speed="19.44" length="0.20" shape="872.79,545.08 872.83,545.28">
            <param key="origId" value="480657117"/>
        </lane>
        <lane id="480657117#0_3" index="3" disallow="tram rail_urban rail rail_electric rail_fast ship" speed="19.44" length="0.20" shape="875.91,544.38 875.95,544.57">
            <param key="origId" value="480657117"/>
        </lane>
        <param key="origTo" value="244316748"/>
    </edge>
    <edge id="480657118" from="4736301943" to="4594224411" name="Sembawang Road" priority="12" type="highway.primary" spreadType="center">
        <lane id="480657118_0" index="0" disallow="tram rail_urban rail rail_electric rail_fast ship" speed="19.44" length="67.17" shape="846.94,475.15 863.93,540.13">
            <param key="origId" value="480657118"/>
        </lane>
        <lane id="480657118_1" index="1" disallow="tram rail_urban rail rail_electric rail_fast ship" speed="19.44" length="67.17" shape="850.03,474.34 867.02,539.32">
            <param key="origId" value="480657118"/>
        </lane>
        <lane id="480657118_2" index="2" disallow="tram rail_urban rail rail_electric rail_fast ship" speed="19.44" length="67.17" shape="853.13,473.53 870.12,538.51">
            <param key="origId" value="480657118"/>
        </lane>
        <lane id="480657118_3" index="3" disallow="tram rail_urban rail rail_electric rail_fast ship" speed="19.44" length="67.17" shape="856.23,472.72 873.21,537.70">
            <param key="origId" value="480657118"/>
        </lane>
        <lane id="480657118_4" index="4" disallow="tram rail_urban rail rail_electric rail_fast ship" speed="19.44" length="67.17" shape="859.32,471.91 876.31,536.89">
            <param key="origId" value="480657118"/>
        </lane>
    </edge>
    <edge id="481619880" from="4594226907" to="244955078" name="Mandai Avenue" priority="12" type="highway.primary" spreadType="center" shape="844.17,583.43 790.12,613.76 719.27,638.51 637.13,652.45 555.56,651.33 429.62,630.67 181.33,585.82 76.78,576.76">