<?xml version="1.0" encoding="UTF-8"?>

<!-- generated on 2023-07-20 10:53:29 by Eclipse SUMO netconvert Version 1.17.0
<configuration xmlns:xsi="http://www.w3.org/2001/XMLSchema-instance" xsi:noNamespaceSchemaLocation="http://sumo.dlr.de/xsd/netconvertConfiguration.xsd">

    <input>
        <sumo-net-file value="osm.net.xml.gz"/>
    </input>

    <output>
        <output-file value="osm.net.xml"/>
        <output.street-names value="true"/>
    </output>

    <processing>
        <geometry.min-radius.fix.railways value="false"/>
        <geometry.max-grade.fix value="false"/>
        <offset.disable-normalization value="true"/>
        <lefthand value="1"/>
    </processing>

    <junctions>
        <no-turnarounds value="true"/>
        <junctions.corner-detail value="5"/>
        <junctions.limit-turn-speed value="5.50"/>
        <rectangular-lane-cut value="0"/>
    </junctions>

    <pedestrian>
        <walkingareas value="0"/>
    </pedestrian>

</configuration>
-->

<net version="1.16" junctionCornerDetail="5" lefthand="true" limitTurnSpeed="5.50" xmlns:xsi="http://www.w3.org/2001/XMLSchema-instance" xsi:noNamespaceSchemaLocation="http://sumo.dlr.de/xsd/net_file.xsd">

    <location netOffset="-373415.19,-154647.91" convBoundary="0.00,0.00,1601.94,850.37" origBoundary="103.862152,1.398873,103.876549,1.406563" projParameter="+proj=utm +zone=48 +ellps=WGS84 +datum=WGS84 +units=m +no_defs"/>

    <type id="highway.bridleway" priority="1" numLanes="1" speed="2.78" allow="pedestrian" oneway="1" width="2.00"/>
    <type id="highway.bus_guideway" priority="1" numLanes="1" speed="27.78" allow="bus" oneway="1"/>
    <type id="highway.cycleway" priority="1" numLanes="1" speed="5.56" allow="bicycle" oneway="0" width="1.00"/>
    <type id="highway.footway" priority="1" numLanes="1" speed="2.78" allow="pedestrian" oneway="1" width="2.00"/>
    <type id="highway.ford" priority="1" numLanes="1" speed="2.78" allow="army" oneway="0"/>
    <type id="highway.living_street" priority="2" numLanes="1" speed="2.78" disallow="tram rail_urban rail rail_electric rail_fast ship" oneway="0"/>
    <type id="highway.motorway" priority="14" numLanes="2" speed="39.44" allow="private emergency authority army vip passenger hov taxi bus coach delivery truck trailer motorcycle evehicle custom1 custom2" oneway="1"/>
    <type id="highway.motorway_link" priority="9" numLanes="1" speed="22.22" allow="private emergency authority army vip passenger hov taxi bus coach delivery truck trailer motorcycle evehicle custom1 custom2" oneway="1"/>
    <type id="highway.path" priority="1" numLanes="1" speed="5.56" allow="pedestrian bicycle" oneway="0" width="2.00"/>
    <type id="highway.pedestrian" priority="1" numLanes="1" speed="2.78" allow="pedestrian" oneway="1" width="2.00"/>
    <type id="highway.primary" priority="12" numLanes="2" speed="27.78" disallow="tram rail_urban rail rail_electric rail_fast ship" oneway="0"/>
    <type id="highway.primary_link" priority="7" numLanes="1" speed="22.22" disallow="tram rail_urban rail rail_electric rail_fast ship" oneway="0"/>
    <type id="highway.raceway" priority="15" numLanes="2" speed="83.33" allow="vip" oneway="0"/>
    <type id="highway.residential" priority="3" numLanes="1" speed="13.89" disallow="tram rail_urban rail rail_electric rail_fast ship" oneway="0"/>
    <type id="highway.secondary" priority="11" numLanes="1" speed="27.78" disallow="tram rail_urban rail rail_electric rail_fast ship" oneway="0"/>
    <type id="highway.secondary_link" priority="6" numLanes="1" speed="22.22" disallow="tram rail_urban rail rail_electric rail_fast ship" oneway="0"/>
    <type id="highway.service" priority="1" numLanes="1" speed="5.56" allow="pedestrian delivery bicycle" oneway="0"/>
    <type id="highway.stairs" priority="1" numLanes="1" speed="1.39" allow="pedestrian" oneway="1" width="2.00"/>
    <type id="highway.step" priority="1" numLanes="1" speed="1.39" allow="pedestrian" oneway="1" width="2.00"/>
    <type id="highway.steps" priority="1" numLanes="1" speed="1.39" allow="pedestrian" oneway="1" width="2.00"/>
    <type id="highway.tertiary" priority="10" numLanes="1" speed="22.22" disallow="tram rail_urban rail rail_electric rail_fast ship" oneway="0"/>
    <type id="highway.tertiary_link" priority="5" numLanes="1" speed="22.22" disallow="tram rail_urban rail rail_electric rail_fast ship" oneway="0"/>
    <type id="highway.track" priority="1" numLanes="1" speed="5.56" allow="pedestrian motorcycle moped bicycle" oneway="0"/>
    <type id="highway.trunk" priority="13" numLanes="2" speed="27.78" disallow="pedestrian bicycle tram rail_urban rail rail_electric rail_fast ship" oneway="0"/>
    <type id="highway.trunk_link" priority="8" numLanes="1" speed="22.22" disallow="pedestrian bicycle tram rail_urban rail rail_electric rail_fast ship" oneway="0"/>
    <type id="highway.unclassified" priority="4" numLanes="1" speed="13.89" disallow="tram rail_urban rail rail_electric rail_fast ship" oneway="0"/>
    <type id="highway.unsurfaced" priority="1" numLanes="1" speed="8.33" disallow="tram rail_urban rail rail_electric rail_fast ship" oneway="0"/>
    <type id="railway.highspeed" priority="21" numLanes="1" speed="69.44" allow="rail_fast" oneway="1"/>
    <type id="railway.light_rail" priority="19" numLanes="1" speed="27.78" allow="rail_urban" oneway="1"/>
    <type id="railway.preserved" priority="16" numLanes="1" speed="27.78" allow="rail" oneway="1"/>
    <type id="railway.rail" priority="20" numLanes="1" speed="44.44" allow="rail" oneway="1"/>
    <type id="railway.subway" priority="18" numLanes="1" speed="27.78" allow="rail_urban" oneway="1"/>
    <type id="railway.tram" priority="17" numLanes="1" speed="13.89" allow="tram" oneway="1"/>

    <edge id=":1711614660_0" function="internal">
        <lane id=":1711614660_0_0" index="0" disallow="tram rail_urban rail rail_electric rail_fast ship" speed="11.11" length="12.96" shape="1087.52,382.63 1089.24,379.66 1090.75,377.01 1092.35,374.42 1094.33,371.62"/>
    </edge>
    <edge id=":1711614660_1" function="internal">
        <lane id=":1711614660_1_0" index="0" disallow="tram rail_urban rail rail_electric rail_fast ship" speed="11.11" length="12.96" shape="1084.74,380.28 1087.41,378.12 1089.82,376.22 1092.09,374.19 1094.33,371.62"/>
    </edge>
    <edge id=":1711614670_0" function="internal">
        <lane id=":1711614670_0_0" index="0" disallow="tram rail_urban rail rail_electric rail_fast ship" speed="11.11" length="7.09" shape="1035.41,381.25 1035.74,383.32 1035.77,384.76 1035.63,386.20 1035.43,388.30"/>
    </edge>
    <edge id=":1711614670_1" function="internal">
        <lane id=":1711614670_1_0" index="0" disallow="tram rail_urban rail rail_electric rail_fast ship" speed="9.98" length="7.10" shape="1035.41,381.25 1035.94,383.24 1036.65,384.49 1037.74,385.52 1039.36,386.86"/>
    </edge>
    <edge id=":1749018623_0" function="internal">
        <lane id=":1749018623_0_0" index="0" allow="private emergency authority army vip passenger hov taxi bus coach delivery truck trailer motorcycle evehicle custom1 custom2" speed="13.89" length="8.21" shape="926.27,293.87 928.66,294.16 930.25,294.74 931.84,295.33 934.23,295.64"/>
        <lane id=":1749018623_0_1" index="1" allow="private emergency authority army vip passenger hov taxi bus coach delivery truck trailer motorcycle evehicle custom1 custom2" speed="13.89" length="8.21" shape="926.33,290.67 928.72,290.96 930.32,291.54 931.91,292.13 934.31,292.44"/>
    </edge>
    <edge id=":1749018633_0" function="internal">
        <lane id=":1749018633_0_0" index="0" allow="private emergency authority army vip passenger hov taxi bus coach delivery truck trailer motorcycle evehicle custom1 custom2" speed="12.50" length="9.49" shape="1139.40,328.72 1140.35,326.09 1141.25,324.37 1142.48,322.87 1144.45,320.86"/>
    </edge>
    <edge id=":1749018633_1" function="internal">
        <lane id=":1749018633_1_0" index="0" disallow="tram rail_urban rail rail_electric rail_fast ship" speed="11.11" length="9.31" shape="1139.40,328.72 1140.00,325.81 1139.75,323.74 1139.20,321.62 1138.90,318.58"/>
        <lane id=":1749018633_1_1" index="1" disallow="tram rail_urban rail rail_electric rail_fast ship" speed="11.11" length="9.31" shape="1136.36,327.70 1136.87,325.09 1136.57,323.23 1136.01,321.32 1135.70,318.57"/>
        <lane id=":1749018633_1_2" index="2" disallow="tram rail_urban rail rail_electric rail_fast ship" speed="11.11" length="9.31" shape="1133.32,326.69 1133.74,324.36 1133.40,322.71 1132.81,321.01 1132.50,318.57"/>
    </edge>
    <edge id=":2083586053_0" function="internal">
        <lane id=":2083586053_0_0" index="0" allow="private emergency authority army vip passenger hov taxi bus coach delivery truck trailer motorcycle evehicle custom1 custom2" speed="10.20" length="8.60" shape="1107.83,191.90 1106.06,193.77 1104.78,195.17 1103.30,196.04 1100.91,196.37"/>
    </edge>
    <edge id=":2083586053_1" function="internal">
        <lane id=":2083586053_1_0" index="0" allow="private emergency authority army vip passenger hov taxi bus coach delivery truck trailer motorcycle evehicle custom1 custom2" speed="13.89" length="8.74" shape="1109.48,195.57 1100.91,196.37"/>
        <lane id=":2083586053_1_1" index="1" allow="private emergency authority army vip passenger hov taxi bus coach delivery truck trailer motorcycle evehicle custom1 custom2" speed="13.89" length="8.74" shape="1109.79,198.75 1100.95,199.57"/>
    </edge>
    <edge id=":2083586122_0" function="internal">
        <lane id=":2083586122_0_0" index="0" disallow="tram rail_urban rail rail_electric rail_fast ship" speed="3.65" length="4.67" shape="1407.34,402.06 1408.72,401.62 1409.33,400.97 1409.17,400.09 1408.24,398.98"/>
    </edge>
    <edge id=":247649373_0" function="internal">
        <lane id=":247649373_0_0" index="0" disallow="tram rail_urban rail rail_electric rail_fast ship" speed="13.89" length="7.54" shape="1137.87,120.90 1138.22,118.73 1138.88,117.33 1139.62,115.94 1140.24,113.80"/>
    </edge>
    <edge id=":2660774623_0" function="internal">
        <lane id=":2660774623_0_0" index="0" allow="private emergency authority army vip passenger hov taxi bus coach delivery truck trailer motorcycle evehicle custom1 custom2" speed="14.44" length="7.24" shape="766.35,337.73 766.59,335.64 767.09,334.27 767.89,332.98 769.00,331.13"/>
    </edge>
    <edge id=":2660774623_1" function="internal">
        <lane id=":2660774623_1_0" index="0" disallow="tram rail_urban rail rail_electric rail_fast ship" speed="16.67" length="7.84" shape="763.15,337.60 763.53,335.35 764.22,333.89 764.91,332.43 765.32,330.19"/>
        <lane id=":2660774623_1_1" index="1" disallow="tram rail_urban rail rail_electric rail_fast ship" speed="16.67" length="7.84" shape="759.95,337.46 760.33,335.21 761.02,333.74 761.72,332.27 762.12,330.01"/>
        <lane id=":2660774623_1_2" index="2" disallow="tram rail_urban rail rail_electric rail_fast ship" speed="16.67" length="7.84" shape="756.76,337.33 757.14,335.06 757.82,333.58 758.52,332.10 758.93,329.84"/>
        <lane id=":2660774623_1_3" index="3" disallow="tram rail_urban rail rail_electric rail_fast ship" speed="16.67" length="7.84" shape="753.56,337.19 753.94,334.91 754.63,333.43 755.33,331.94 755.73,329.67"/>
    </edge>
    <edge id=":2660774626_0" function="internal">
        <lane id=":2660774626_0_0" index="0" disallow="tram rail_urban rail rail_electric rail_fast ship" speed="16.67" length="7.37" shape="766.92,300.72 767.28,293.30"/>
        <lane id=":2660774626_0_1" index="1" disallow="tram rail_urban rail rail_electric rail_fast ship" speed="16.67" length="7.37" shape="763.73,300.55 764.09,293.17"/>
        <lane id=":2660774626_0_2" index="2" disallow="tram rail_urban rail rail_electric rail_fast ship" speed="16.67" length="7.37" shape="760.53,300.38 760.89,293.04"/>
        <lane id=":2660774626_0_3" index="3" disallow="tram rail_urban rail rail_electric rail_fast ship" speed="16.67" length="7.37" shape="757.33,300.21 757.69,292.91"/>
    </edge>
    <edge id=":2660774626_4" function="internal">
        <lane id=":2660774626_4_0" index="0" allow="private emergency authority army vip passenger hov taxi bus coach delivery truck trailer motorcycle evehicle custom1 custom2" speed="13.89" length="19.72" shape="752.71,295.34 757.19,295.19 762.55,294.79 767.89,294.24 772.33,293.61"/>
    </edge>
    <edge id=":2660774630_0" function="internal">
        <lane id=":2660774630_0_0" index="0" disallow="tram rail_urban rail rail_electric rail_fast ship" speed="16.67" length="21.20" shape="739.59,351.18 740.10,357.17 741.27,361.40 742.41,365.72 742.81,372.02"/>
        <lane id=":2660774630_0_1" index="1" disallow="tram rail_urban rail rail_electric rail_fast ship" speed="16.67" length="21.20" shape="742.79,351.21 743.30,357.20 744.47,361.44 745.61,365.78 746.01,372.10"/>
    </edge>
    <edge id=":2660774630_2" function="internal">
        <lane id=":2660774630_2_0" index="0" allow="private emergency authority army vip passenger hov taxi bus coach delivery truck trailer motorcycle evehicle custom1 custom2" speed="15.28" length="20.50" shape="732.98,352.10 734.35,357.92 735.50,361.90 736.25,365.92 736.42,371.86"/>
        <lane id=":2660774630_2_1" index="1" allow="private emergency authority army vip passenger hov taxi bus coach delivery truck trailer motorcycle evehicle custom1 custom2" speed="15.28" length="20.50" shape="736.13,351.49 737.50,357.37 738.67,361.51 739.44,365.75 739.61,371.94"/>
    </edge>
    <edge id=":2660826264_0" function="internal">
        <lane id=":2660826264_0_0" index="0" disallow="tram rail_urban rail rail_electric rail_fast ship" speed="13.89" length="6.62" shape="1125.62,105.38 1124.75,107.18 1123.86,108.30 1123.07,109.44 1122.54,111.31"/>
        <lane id=":2660826264_0_1" index="1" disallow="tram rail_urban rail rail_electric rail_fast ship" speed="13.89" length="6.62" shape="1125.62,105.38 1125.26,107.22 1125.45,108.54 1125.74,109.88 1125.70,111.79"/>
    </edge>
    <edge id=":2660826283_0" function="internal">
        <lane id=":2660826283_0_0" index="0" disallow="tram rail_urban rail rail_electric rail_fast ship" speed="13.89" length="6.71" shape="1118.89,135.67 1118.08,137.74 1116.85,138.96 1115.75,140.19 1115.34,142.28"/>
        <lane id=":2660826283_0_1" index="1" disallow="tram rail_urban rail rail_electric rail_fast ship" speed="13.89" length="6.71" shape="1118.89,135.67 1118.61,137.58 1118.48,138.90 1118.47,140.22 1118.54,142.15"/>
        <lane id=":2660826283_0_2" index="2" disallow="tram rail_urban rail rail_electric rail_fast ship" speed="13.89" length="6.71" shape="1122.05,136.14 1121.80,137.88 1121.69,139.07 1121.67,140.27 1121.73,142.02"/>
        <lane id=":2660826283_0_3" index="3" disallow="tram rail_urban rail rail_electric rail_fast ship" speed="13.89" length="6.71" shape="1122.05,136.14 1122.28,137.93 1123.26,139.01 1124.36,140.09 1124.93,141.89"/>
    </edge>
    <edge id=":2661055918_0" function="internal">
        <lane id=":2661055918_0_0" index="0" disallow="tram rail_urban rail rail_electric rail_fast ship" speed="16.67" length="14.86" shape="737.69,278.35 737.99,282.69 738.95,285.61 739.91,288.54 740.20,292.88"/>
        <lane id=":2661055918_0_1" index="1" disallow="tram rail_urban rail rail_electric rail_fast ship" speed="16.67" length="14.86" shape="740.89,278.50 741.18,282.84 742.14,285.77 743.10,288.69 743.40,293.03"/>
    </edge>
    <edge id=":2661055918_2" function="internal">
        <lane id=":2661055918_2_0" index="0" allow="private emergency authority army vip passenger hov taxi bus coach delivery truck trailer motorcycle evehicle custom1 custom2" speed="7.89" length="14.06" shape="744.09,278.65 744.44,282.57 745.92,285.39 748.54,287.12 752.29,287.75"/>
        <lane id=":2661055918_2_1" index="1" allow="private emergency authority army vip passenger hov taxi bus coach delivery truck trailer motorcycle evehicle custom1 custom2" speed="6.38" length="8.84" shape="747.28,278.81 747.50,281.28 748.43,283.06 750.06,284.15 752.41,284.55"/>
    </edge>
    <edge id=":2661055918_4" function="internal">
        <lane id=":2661055918_4_0" index="0" allow="private emergency authority army vip passenger hov taxi bus coach delivery truck trailer motorcycle evehicle custom1 custom2" speed="13.89" length="20.48" shape="731.76,290.59 752.16,290.95"/>
        <lane id=":2661055918_4_1" index="1" allow="private emergency authority army vip passenger hov taxi bus coach delivery truck trailer motorcycle evehicle custom1 custom2" speed="13.89" length="20.48" shape="731.81,287.39 752.29,287.75"/>
        <lane id=":2661055918_4_2" index="2" allow="private emergency authority army vip passenger hov taxi bus coach delivery truck trailer motorcycle evehicle custom1 custom2" speed="13.89" length="20.48" shape="731.86,284.19 752.41,284.55"/>
    </edge>
    <edge id=":2661055924_0" function="internal">
        <lane id=":2661055924_0_0" index="0" allow="private emergency authority army vip passenger hov taxi bus coach delivery truck trailer motorcycle evehicle custom1 custom2" speed="13.89" length="6.55" shape="883.82,200.30 881.91,200.57 880.62,201.07 879.33,201.45 877.45,201.37"/>
    </edge>
    <edge id=":2661055924_1" function="internal">
        <lane id=":2661055924_1_0" index="0" allow="private emergency authority army vip passenger hov taxi bus coach delivery truck trailer motorcycle evehicle custom1 custom2" speed="13.89" length="6.95" shape="883.82,200.30 882.03,199.84 881.03,198.74 880.02,197.58 878.24,196.92"/>
        <lane id=":2661055924_1_1" index="1" allow="private emergency authority army vip passenger hov taxi bus coach delivery truck trailer motorcycle evehicle custom1 custom2" speed="13.89" length="6.95" shape="883.82,200.30 881.99,200.33 880.74,200.32 879.50,200.24 877.68,200.08"/>
        <lane id=":2661055924_1_2" index="2" allow="private emergency authority army vip passenger hov taxi bus coach delivery truck trailer motorcycle evehicle custom1 custom2" speed="13.89" length="6.95" shape="883.89,203.50 881.87,203.53 880.50,203.51 879.12,203.42 877.11,203.25"/>
        <lane id=":2661055924_1_3" index="3" allow="private emergency authority army vip passenger hov taxi bus coach delivery truck trailer motorcycle evehicle custom1 custom2" speed="13.89" length="6.95" shape="883.89,203.50 881.63,204.03 880.21,205.11 878.80,206.11 876.55,206.41"/>
    </edge>
    <edge id=":2661055937_0" function="internal">
        <lane id=":2661055937_0_0" index="0" allow="private emergency authority army vip passenger hov taxi bus coach delivery truck trailer motorcycle evehicle custom1 custom2" speed="8.97" length="5.59" shape="797.19,297.07 798.49,296.04 799.46,295.36 800.53,295.00 802.14,294.91"/>
    </edge>
    <edge id=":2661055937_1" function="internal">
        <lane id=":2661055937_1_0" index="0" allow="private emergency authority army vip passenger hov taxi bus coach delivery truck trailer motorcycle evehicle custom1 custom2" speed="13.89" length="6.54" shape="795.93,293.28 797.82,293.04 799.06,292.49 800.31,291.94 802.20,291.71"/>
        <lane id=":2661055937_1_1" index="1" allow="private emergency authority army vip passenger hov taxi bus coach delivery truck trailer motorcycle evehicle custom1 custom2" speed="13.89" length="6.54" shape="795.96,290.08 797.85,289.84 799.11,289.29 800.36,288.74 802.25,288.52"/>
    </edge>
    <edge id=":2661055950_0" function="internal">
        <lane id=":2661055950_0_0" index="0" disallow="tram rail_urban rail rail_electric rail_fast ship" speed="16.67" length="7.73" shape="740.19,293.08 740.03,300.87"/>
        <lane id=":2661055950_0_1" index="1" disallow="tram rail_urban rail rail_electric rail_fast ship" speed="16.67" length="7.73" shape="743.39,293.23 743.23,300.90"/>
    </edge>
    <edge id=":2661055950_2" function="internal">
        <lane id=":2661055950_2_0" index="0" disallow="moped bicycle tram rail_urban rail rail_electric rail_fast ship" speed="5.52" length="6.45" shape="743.39,293.23 743.69,294.16 744.72,294.83 746.46,295.23 748.92,295.35"/>
    </edge>
    <edge id=":2661055950_3" function="internal">
        <lane id=":2661055950_3_0" index="0" allow="private emergency authority army vip passenger hov taxi bus coach delivery truck trailer motorcycle evehicle custom1 custom2" speed="13.89" length="14.37" shape="734.55,295.22 748.92,295.35"/>
    </edge>
    <edge id=":3553409687_0" function="internal">
        <lane id=":3553409687_0_0" index="0" allow="private emergency authority army vip passenger hov taxi bus coach delivery truck trailer motorcycle evehicle custom1 custom2" speed="19.45" length="5.27" shape="901.48,218.67 899.92,218.65 898.85,218.70 897.78,218.83 896.23,219.02"/>
        <lane id=":3553409687_0_1" index="1" allow="private emergency authority army vip passenger hov taxi bus coach delivery truck trailer motorcycle evehicle custom1 custom2" speed="19.45" length="4.81" shape="901.40,221.86 899.97,221.85 898.99,221.91 898.02,222.02 896.60,222.20"/>
    </edge>
    <edge id=":3553409687_2" function="internal">
        <lane id=":3553409687_2_0" index="0" allow="private emergency authority army vip passenger hov taxi bus coach delivery truck trailer motorcycle evehicle custom1 custom2" speed="25.00" length="4.34" shape="901.31,225.06 899.91,224.78 899.03,224.20 898.14,223.63 896.74,223.35"/>
        <lane id=":3553409687_2_1" index="1" allow="private emergency authority army vip passenger hov taxi bus coach delivery truck trailer motorcycle evehicle custom1 custom2" speed="25.00" length="4.34" shape="901.23,228.26 899.96,227.98 899.18,227.41 898.39,226.84 897.12,226.56"/>
        <lane id=":3553409687_2_2" index="2" allow="private emergency authority army vip passenger hov taxi bus coach delivery truck trailer motorcycle evehicle custom1 custom2" speed="25.00" length="4.34" shape="901.15,231.46 900.01,231.18 899.32,230.61 898.63,230.05 897.50,229.77"/>
        <lane id=":3553409687_2_3" index="3" allow="private emergency authority army vip passenger hov taxi bus coach delivery truck trailer motorcycle evehicle custom1 custom2" speed="25.00" length="4.34" shape="901.06,234.66 900.06,234.38 899.47,233.82 898.88,233.25 897.88,232.98"/>
    </edge>
    <edge id=":3553412912_0" function="internal">
        <lane id=":3553412912_0_0" index="0" allow="private emergency authority army vip passenger hov taxi bus coach delivery truck trailer motorcycle evehicle custom1 custom2" speed="13.89" length="38.68" shape="532.35,168.28 493.72,166.18"/>
    </edge>
    <edge id=":3553412912_1" function="internal">
        <lane id=":3553412912_1_0" index="0" allow="private emergency authority army vip passenger hov taxi bus coach delivery truck trailer motorcycle evehicle custom1 custom2" speed="13.89" length="38.68" shape="532.02,171.59 493.72,166.18"/>
    </edge>
    <edge id=":3553412926_0" function="internal">
        <lane id=":3553412926_0_0" index="0" allow="private emergency authority army vip passenger hov taxi bus coach delivery truck trailer motorcycle evehicle custom1 custom2" speed="13.89" length="11.07" shape="585.09,176.98 581.74,177.11 579.38,177.52 577.12,177.83 574.08,177.66"/>
    </edge>
    <edge id=":3553412926_1" function="internal">
        <lane id=":3553412926_1_0" index="0" allow="private emergency authority army vip passenger hov taxi bus coach delivery truck trailer motorcycle evehicle custom1 custom2" speed="13.89" length="10.77" shape="584.99,180.18 581.73,180.17 579.50,180.39 577.28,180.76 574.04,181.23"/>
        <lane id=":3553412926_1_1" index="1" allow="private emergency authority army vip passenger hov taxi bus coach delivery truck trailer motorcycle evehicle custom1 custom2" speed="13.89" length="10.77" shape="584.88,183.38 581.77,183.38 579.64,183.59 577.53,183.95 574.43,184.40"/>
    </edge>
    <edge id=":3553412929_0" function="internal">
        <lane id=":3553412929_0_0" index="0" allow="private emergency authority army vip passenger hov taxi bus coach delivery truck trailer motorcycle evehicle custom1 custom2" speed="11.89" length="14.11" shape="722.08,178.08 718.79,180.84 715.78,182.78 713.05,183.90 710.60,184.19"/>
        <lane id=":3553412929_0_1" index="1" allow="private emergency authority army vip passenger hov taxi bus coach delivery truck trailer motorcycle evehicle custom1 custom2" speed="12.57" length="14.11" shape="723.56,181.07 720.05,183.95 716.70,185.96 713.49,187.11 710.44,187.39"/>
    </edge>
    <edge id=":3553412929_2" function="internal">
        <lane id=":3553412929_2_0" index="0" allow="private emergency authority army vip passenger hov taxi bus coach delivery truck trailer motorcycle evehicle custom1 custom2" speed="13.89" length="13.94" shape="724.55,185.31 710.60,184.19"/>
        <lane id=":3553412929_2_1" index="1" allow="private emergency authority army vip passenger hov taxi bus coach delivery truck trailer motorcycle evehicle custom1 custom2" speed="13.89" length="13.94" shape="724.28,188.50 710.44,187.39"/>
    </edge>
    <edge id=":3553412938_0" function="internal">
        <lane id=":3553412938_0_0" index="0" allow="private emergency authority army vip passenger hov taxi bus coach delivery truck trailer motorcycle evehicle custom1 custom2" speed="25.00" length="3.40" shape="805.18,253.89 808.62,254.05"/>
        <lane id=":3553412938_0_1" index="1" allow="private emergency authority army vip passenger hov taxi bus coach delivery truck trailer motorcycle evehicle custom1 custom2" speed="25.00" length="3.40" shape="805.35,250.69 808.74,250.85"/>
        <lane id=":3553412938_0_2" index="2" allow="private emergency authority army vip passenger hov taxi bus coach delivery truck trailer motorcycle evehicle custom1 custom2" speed="25.00" length="3.40" shape="805.51,247.49 808.86,247.65"/>
    </edge>
    <edge id=":3553412938_3" function="internal">
        <lane id=":3553412938_3_0" index="0" allow="private emergency authority army vip passenger hov taxi bus coach delivery truck trailer motorcycle evehicle custom1 custom2" speed="19.45" length="3.51" shape="804.86,260.06 805.90,260.23 806.61,260.33 807.32,260.40 808.37,260.45"/>
        <lane id=":3553412938_3_1" index="1" allow="private emergency authority army vip passenger hov taxi bus coach delivery truck trailer motorcycle evehicle custom1 custom2" speed="19.45" length="3.51" shape="805.03,256.85 806.05,257.02 806.75,257.12 807.46,257.20 808.49,257.25"/>
    </edge>
    <edge id=":3553412948_0" function="internal">
        <lane id=":3553412948_0_0" index="0" allow="private emergency authority army vip passenger hov taxi bus coach delivery truck trailer motorcycle evehicle custom1 custom2" speed="13.89" length="0.25" shape="395.78,258.09 395.98,258.09"/>
        <lane id=":3553412948_0_1" index="1" allow="private emergency authority army vip passenger hov taxi bus coach delivery truck trailer motorcycle evehicle custom1 custom2" speed="13.89" length="0.25" shape="395.71,254.89 396.01,254.89"/>
    </edge>
    <edge id=":3553412965_0" function="internal">
        <lane id=":3553412965_0_0" index="0" allow="private emergency authority army vip passenger hov taxi bus coach delivery truck trailer motorcycle evehicle custom1 custom2" speed="13.89" length="31.59" shape="470.79,292.97 502.17,296.54"/>
    </edge>
    <edge id=":3553412965_1" function="internal">
        <lane id=":3553412965_1_0" index="0" allow="private emergency authority army vip passenger hov taxi bus coach delivery truck trailer motorcycle evehicle custom1 custom2" speed="13.89" length="31.58" shape="470.79,292.97 502.37,293.18"/>
    </edge>
    <edge id=":3553412977_0" function="internal">
        <lane id=":3553412977_0_0" index="0" allow="private emergency authority army vip passenger hov taxi bus coach delivery truck trailer motorcycle evehicle custom1 custom2" speed="13.89" length="16.69" shape="661.08,307.05 664.60,306.25 668.11,305.31 672.21,304.78 677.51,305.24"/>
    </edge>
    <edge id=":3553412977_1" function="internal">
        <lane id=":3553412977_1_0" index="0" allow="private emergency authority army vip passenger hov taxi bus coach delivery truck trailer motorcycle evehicle custom1 custom2" speed="13.89" length="17.40" shape="660.89,303.60 664.49,303.21 668.18,302.31 672.53,301.69 678.10,302.10"/>
    </edge>
    <edge id=":3553413001_0" function="internal">
        <lane id=":3553413001_0_0" index="0" allow="private emergency authority army vip passenger hov taxi bus coach delivery truck trailer motorcycle evehicle custom1 custom2" speed="15.28" length="6.61" shape="748.60,36.75 748.94,38.62 749.82,39.88 750.53,41.09 750.36,42.85"/>
        <lane id=":3553413001_0_1" index="1" allow="private emergency authority army vip passenger hov taxi bus coach delivery truck trailer motorcycle evehicle custom1 custom2" speed="15.28" length="7.36" shape="751.80,36.99 752.11,39.10 752.96,40.55 753.62,41.94 753.38,43.93"/>
    </edge>
    <edge id=":3553413001_2" function="internal">
        <lane id=":3553413001_2_0" index="0" disallow="tram rail_urban rail rail_electric rail_fast ship" speed="16.67" length="6.92" shape="751.80,36.99 751.42,38.71 750.78,39.81 750.15,40.92 749.78,42.64"/>
        <lane id=":3553413001_2_1" index="1" disallow="tram rail_urban rail rail_electric rail_fast ship" speed="16.67" length="6.92" shape="754.99,37.23 754.59,39.21 753.94,40.50 753.30,41.78 752.91,43.77"/>
        <lane id=":3553413001_2_2" index="2" disallow="tram rail_urban rail rail_electric rail_fast ship" speed="16.67" length="6.92" shape="758.18,37.47 757.76,39.71 757.10,41.18 756.45,42.65 756.04,44.89"/>
    </edge>
    <edge id=":3553413005_0" function="internal">