<?xml version="1.0" encoding="UTF-8"?>

<!-- generated on 2023-07-20 11:09:42 by Eclipse SUMO netconvert Version 1.17.0
<configuration xmlns:xsi="http://www.w3.org/2001/XMLSchema-instance" xsi:noNamespaceSchemaLocation="http://sumo.dlr.de/xsd/netconvertConfiguration.xsd">

    <input>
        <sumo-net-file value="osm.net.xml.gz"/>
    </input>

    <output>
        <output-file value="osm.net.xml"/>
        <output.street-names value="true"/>
    </output>

    <processing>
        <geometry.min-radius.fix.railways value="false"/>
        <geometry.max-grade.fix value="false"/>
        <offset.disable-normalization value="true"/>
        <lefthand value="1"/>
    </processing>

    <junctions>
        <no-turnarounds value="true"/>
        <junctions.corner-detail value="5"/>
        <junctions.limit-turn-speed value="5.50"/>
        <rectangular-lane-cut value="0"/>
    </junctions>

    <pedestrian>
        <walkingareas value="0"/>
    </pedestrian>

</configuration>
-->

<net version="1.16" junctionCornerDetail="5" lefthand="true" limitTurnSpeed="5.50" xmlns:xsi="http://www.w3.org/2001/XMLSchema-instance" xsi:noNamespaceSchemaLocation="http://sumo.dlr.de/xsd/net_file.xsd">

    <location netOffset="-369603.08,-153922.98" convBoundary="0.00,0.00,1326.98,608.68" origBoundary="103.827894,1.392298,103.839819,1.397800" projParameter="+proj=utm +zone=48 +ellps=WGS84 +datum=WGS84 +units=m +no_defs"/>

    <type id="highway.bridleway" priority="1" numLanes="1" speed="2.78" allow="pedestrian" oneway="1" width="2.00"/>
    <type id="highway.bus_guideway" priority="1" numLanes="1" speed="27.78" allow="bus" oneway="1"/>
    <type id="highway.cycleway" priority="1" numLanes="1" speed="5.56" allow="bicycle" oneway="0" width="1.00"/>
    <type id="highway.footway" priority="1" numLanes="1" speed="2.78" allow="pedestrian" oneway="1" width="2.00"/>
    <type id="highway.ford" priority="1" numLanes="1" speed="2.78" allow="army" oneway="0"/>
    <type id="highway.living_street" priority="2" numLanes="1" speed="2.78" disallow="tram rail_urban rail rail_electric rail_fast ship" oneway="0"/>
    <type id="highway.motorway" priority="14" numLanes="2" speed="39.44" allow="private emergency authority army vip passenger hov taxi bus coach delivery truck trailer motorcycle evehicle custom1 custom2" oneway="1"/>
    <type id="highway.motorway_link" priority="9" numLanes="1" speed="22.22" allow="private emergency authority army vip passenger hov taxi bus coach delivery truck trailer motorcycle evehicle custom1 custom2" oneway="1"/>
    <type id="highway.path" priority="1" numLanes="1" speed="5.56" allow="pedestrian bicycle" oneway="0" width="2.00"/>
    <type id="highway.pedestrian" priority="1" numLanes="1" speed="2.78" allow="pedestrian" oneway="1" width="2.00"/>
    <type id="highway.primary" priority="12" numLanes="2" speed="27.78" disallow="tram rail_urban rail rail_electric rail_fast ship" oneway="0"/>
    <type id="highway.primary_link" priority="7" numLanes="1" speed="22.22" disallow="tram rail_urban rail rail_electric rail_fast ship" oneway="0"/>
    <type id="highway.raceway" priority="15" numLanes="2" speed="83.33" allow="vip" oneway="0"/>
    <type id="highway.residential" priority="3" numLanes="1" speed="13.89" disallow="tram rail_urban rail rail_electric rail_fast ship" oneway="0"/>
    <type id="highway.secondary" priority="11" numLanes="1" speed="27.78" disallow="tram rail_urban rail rail_electric rail_fast ship" oneway="0"/>
    <type id="highway.secondary_link" priority="6" numLanes="1" speed="22.22" disallow="tram rail_urban rail rail_electric rail_fast ship" oneway="0"/>
    <type id="highway.service" priority="1" numLanes="1" speed="5.56" allow="pedestrian delivery bicycle" oneway="0"/>
    <type id="highway.stairs" priority="1" numLanes="1" speed="1.39" allow="pedestrian" oneway="1" width="2.00"/>
    <type id="highway.step" priority="1" numLanes="1" speed="1.39" allow="pedestrian" oneway="1" width="2.00"/>
    <type id="highway.steps" priority="1" numLanes="1" speed="1.39" allow="pedestrian" oneway="1" width="2.00"/>
    <type id="highway.tertiary" priority="10" numLanes="1" speed="22.22" disallow="tram rail_urban rail rail_electric rail_fast ship" oneway="0"/>
    <type id="highway.tertiary_link" priority="5" numLanes="1" speed="22.22" disallow="tram rail_urban rail rail_electric rail_fast ship" oneway="0"/>
    <type id="highway.track" priority="1" numLanes="1" speed="5.56" allow="pedestrian motorcycle moped bicycle" oneway="0"/>
    <type id="highway.trunk" priority="13" numLanes="2" speed="27.78" disallow="pedestrian bicycle tram rail_urban rail rail_electric rail_fast ship" oneway="0"/>
    <type id="highway.trunk_link" priority="8" numLanes="1" speed="22.22" disallow="pedestrian bicycle tram rail_urban rail rail_electric rail_fast ship" oneway="0"/>
    <type id="highway.unclassified" priority="4" numLanes="1" speed="13.89" disallow="tram rail_urban rail rail_electric rail_fast ship" oneway="0"/>
    <type id="highway.unsurfaced" priority="1" numLanes="1" speed="8.33" disallow="tram rail_urban rail rail_electric rail_fast ship" oneway="0"/>
    <type id="railway.highspeed" priority="21" numLanes="1" speed="69.44" allow="rail_fast" oneway="1"/>
    <type id="railway.light_rail" priority="19" numLanes="1" speed="27.78" allow="rail_urban" oneway="1"/>
    <type id="railway.preserved" priority="16" numLanes="1" speed="27.78" allow="rail" oneway="1"/>
    <type id="railway.rail" priority="20" numLanes="1" speed="44.44" allow="rail" oneway="1"/>
    <type id="railway.subway" priority="18" numLanes="1" speed="27.78" allow="rail_urban" oneway="1"/>
    <type id="railway.tram" priority="17" numLanes="1" speed="13.89" allow="tram" oneway="1"/>

    <edge id=":148981958_0" function="internal">
        <lane id=":148981958_0_0" index="0" allow="private emergency authority army vip passenger hov taxi bus coach delivery truck trailer motorcycle evehicle custom1 custom2" speed="19.45" length="5.17" shape="1028.02,291.79 1026.53,291.44 1025.49,291.26 1024.45,291.13 1022.92,290.97"/>
        <lane id=":148981958_0_1" index="1" allow="private emergency authority army vip passenger hov taxi bus coach delivery truck trailer motorcycle evehicle custom1 custom2" speed="19.45" length="4.76" shape="1027.25,294.89 1025.87,294.57 1024.92,294.41 1023.96,294.30 1022.56,294.14"/>
    </edge>
    <edge id=":148981958_2" function="internal">
        <lane id=":148981958_2_0" index="0" allow="private emergency authority army vip passenger hov taxi bus coach delivery truck trailer motorcycle evehicle custom1 custom2" speed="25.00" length="4.38" shape="1026.47,298.00 1025.18,297.42 1024.45,296.66 1023.72,295.90 1022.42,295.31"/>
        <lane id=":148981958_2_1" index="1" allow="private emergency authority army vip passenger hov taxi bus coach delivery truck trailer motorcycle evehicle custom1 custom2" speed="25.00" length="4.38" shape="1025.70,301.10 1024.52,300.55 1023.87,299.82 1023.23,299.08 1022.05,298.52"/>
        <lane id=":148981958_2_2" index="2" allow="private emergency authority army vip passenger hov taxi bus coach delivery truck trailer motorcycle evehicle custom1 custom2" speed="25.00" length="4.38" shape="1024.93,304.21 1023.86,303.68 1023.30,302.98 1022.75,302.26 1021.68,301.73"/>
        <lane id=":148981958_2_3" index="3" allow="private emergency authority army vip passenger hov taxi bus coach delivery truck trailer motorcycle evehicle custom1 custom2" speed="25.00" length="4.38" shape="1024.15,307.31 1023.20,306.82 1022.73,306.13 1022.26,305.44 1021.31,304.94"/>
    </edge>
    <edge id=":148992748_0" function="internal">
        <lane id=":148992748_0_0" index="0" allow="private emergency authority army vip passenger hov taxi bus coach delivery truck trailer motorcycle evehicle custom1 custom2" speed="19.45" length="5.81" shape="264.61,141.21 266.31,141.49 267.48,141.60 268.66,141.62 270.39,141.64"/>
        <lane id=":148992748_0_1" index="1" allow="private emergency authority army vip passenger hov taxi bus coach delivery truck trailer motorcycle evehicle custom1 custom2" speed="19.45" length="5.29" shape="265.20,138.06 266.75,138.32 267.82,138.41 268.90,138.42 270.47,138.45"/>
    </edge>
    <edge id=":148992748_2" function="internal">
        <lane id=":148992748_2_0" index="0" allow="private emergency authority army vip passenger hov taxi bus coach delivery truck trailer motorcycle evehicle custom1 custom2" speed="25.00" length="4.71" shape="265.80,134.92 267.27,135.46 268.15,136.19 269.02,136.94 270.49,137.51"/>
        <lane id=":148992748_2_1" index="1" allow="private emergency authority army vip passenger hov taxi bus coach delivery truck trailer motorcycle evehicle custom1 custom2" speed="25.00" length="4.71" shape="266.39,131.77 267.72,132.28 268.49,132.99 269.25,133.72 270.58,134.26"/>
        <lane id=":148992748_2_2" index="2" allow="private emergency authority army vip passenger hov taxi bus coach delivery truck trailer motorcycle evehicle custom1 custom2" speed="25.00" length="4.71" shape="266.98,128.63 268.16,129.11 268.83,129.80 269.48,130.50 270.66,131.00"/>
        <lane id=":148992748_2_3" index="3" allow="private emergency authority army vip passenger hov taxi bus coach delivery truck trailer motorcycle evehicle custom1 custom2" speed="25.00" length="4.71" shape="267.58,125.49 268.61,125.93 269.16,126.60 269.71,127.27 270.74,127.75"/>
    </edge>
    <edge id=":148992984_0" function="internal">
        <lane id=":148992984_0_0" index="0" allow="private emergency authority army vip passenger hov taxi bus coach delivery truck trailer motorcycle evehicle custom1 custom2" speed="25.00" length="2.25" shape="968.86,317.55 971.40,318.32"/>
        <lane id=":148992984_0_1" index="1" allow="private emergency authority army vip passenger hov taxi bus coach delivery truck trailer motorcycle evehicle custom1 custom2" speed="25.00" length="2.25" shape="969.86,314.51 972.14,315.21"/>
        <lane id=":148992984_0_2" index="2" allow="private emergency authority army vip passenger hov taxi bus coach delivery truck trailer motorcycle evehicle custom1 custom2" speed="25.00" length="2.25" shape="970.85,311.47 972.88,312.09"/>
        <lane id=":148992984_0_3" index="3" allow="private emergency authority army vip passenger hov taxi bus coach delivery truck trailer motorcycle evehicle custom1 custom2" speed="25.00" length="2.25" shape="971.85,308.43 973.63,308.98"/>
    </edge>
    <edge id=":148992984_4" function="internal">
        <lane id=":148992984_4_0" index="0" allow="private emergency authority army vip passenger hov taxi bus coach delivery truck trailer motorcycle evehicle custom1 custom2" speed="19.45" length="3.08" shape="967.01,323.23 967.84,323.69 968.41,324.02 969.00,324.29 969.91,324.54"/>
        <lane id=":148992984_4_1" index="1" allow="private emergency authority army vip passenger hov taxi bus coach delivery truck trailer motorcycle evehicle custom1 custom2" speed="19.45" length="3.08" shape="968.02,320.14 968.78,320.58 969.29,320.91 969.82,321.18 970.65,321.43"/>
    </edge>
    <edge id=":244893823_0" function="internal">
        <lane id=":244893823_0_0" index="0" allow="private emergency authority army vip passenger hov taxi bus coach delivery truck trailer motorcycle evehicle custom1 custom2" speed="16.66" length="3.63" shape="318.58,460.06 317.99,456.48"/>
        <lane id=":244893823_0_1" index="1" allow="private emergency authority army vip passenger hov taxi bus coach delivery truck trailer motorcycle evehicle custom1 custom2" speed="16.66" length="3.92" shape="316.40,457.72 316.23,453.80"/>
    </edge>
    <edge id=":244893823_2" function="internal">
        <lane id=":244893823_2_0" index="0" disallow="tram rail_urban rail rail_electric rail_fast ship" speed="19.44" length="4.01" shape="314.22,455.38 317.93,456.38"/>
        <lane id=":244893823_2_1" index="1" disallow="tram rail_urban rail rail_electric rail_fast ship" speed="19.44" length="4.01" shape="312.04,453.03 316.16,453.69"/>
    </edge>
    <edge id=":244893908_0" function="internal">
        <lane id=":244893908_0_0" index="0" disallow="tram rail_urban rail rail_electric rail_fast ship" speed="19.44" length="8.13" shape="265.23,457.68 262.81,458.40 260.93,458.19 259.07,458.03 256.75,458.90"/>
        <lane id=":244893908_0_1" index="1" disallow="tram rail_urban rail rail_electric rail_fast ship" speed="19.44" length="8.13" shape="265.23,457.68 258.45,461.61"/>
        <lane id=":244893908_0_2" index="2" disallow="tram rail_urban rail rail_electric rail_fast ship" speed="19.44" length="8.13" shape="266.73,460.51 260.16,464.31"/>
        <lane id=":244893908_0_3" index="3" disallow="tram rail_urban rail rail_electric rail_fast ship" speed="19.44" length="8.13" shape="266.73,460.51 264.94,462.02 264.24,463.66 263.58,465.35 261.87,467.02"/>
    </edge>
    <edge id=":440556679_0" function="internal">
        <lane id=":440556679_0_0" index="0" disallow="tram rail_urban rail rail_electric rail_fast ship" speed="19.44" length="8.06" shape="265.38,507.66 267.16,506.19 268.62,505.50 270.11,504.83 271.97,503.44"/>
        <lane id=":440556679_0_1" index="1" disallow="tram rail_urban rail rail_electric rail_fast ship" speed="19.44" length="8.06" shape="265.38,507.66 266.82,505.82 267.53,504.33 268.27,502.86 269.79,501.10"/>
        <lane id=":440556679_0_2" index="2" disallow="tram rail_urban rail rail_electric rail_fast ship" speed="19.44" length="8.06" shape="263.08,505.44 264.56,503.56 265.29,502.04 266.05,500.55 267.61,498.76"/>
        <lane id=":440556679_0_3" index="3" disallow="tram rail_urban rail rail_electric rail_fast ship" speed="19.44" length="8.06" shape="260.79,503.21 262.29,501.30 263.05,499.76 263.83,498.25 265.43,496.42"/>
    </edge>
    <edge id=":440556692_0" function="internal">
        <lane id=":440556692_0_0" index="0" allow="private emergency authority army vip passenger hov taxi bus coach delivery truck trailer motorcycle evehicle custom1 custom2" speed="13.89" length="15.03" shape="549.58,230.85 554.00,232.55 557.06,234.46 559.52,236.56 562.13,238.83"/>
    </edge>
    <edge id=":440556692_1" function="internal">
        <lane id=":440556692_1_0" index="0" allow="private emergency authority army vip passenger hov taxi bus coach delivery truck trailer motorcycle evehicle custom1 custom2" speed="13.89" length="15.06" shape="549.58,230.85 564.27,234.48"/>
        <lane id=":440556692_1_1" index="1" allow="private emergency authority army vip passenger hov taxi bus coach delivery truck trailer motorcycle evehicle custom1 custom2" speed="13.89" length="15.06" shape="550.49,227.78 565.04,231.37"/>
    </edge>
    <edge id=":440556700_0" function="internal">
        <lane id=":440556700_0_0" index="0" allow="private emergency authority army vip passenger hov taxi bus coach delivery truck trailer motorcycle evehicle custom1 custom2" speed="11.02" length="18.38" shape="566.51,256.86 566.56,261.84 565.40,266.15 563.05,269.78 559.51,272.74"/>
    </edge>
    <edge id=":440556700_1" function="internal">
        <lane id=":440556700_1_0" index="0" allow="bus" speed="7.70" length="17.70" shape="566.51,256.86 567.80,263.41 569.78,267.39 572.46,268.80 575.82,267.63"/>
    </edge>
    <edge id=":440556700_2" function="internal">
        <lane id=":440556700_2_0" index="0" disallow="tram rail_urban rail rail_electric rail_fast ship" speed="19.44" length="17.43" shape="570.53,259.62 566.81,263.02 565.05,266.23 563.28,269.42 559.51,272.74"/>
        <lane id=":440556700_2_1" index="1" disallow="tram rail_urban rail rail_electric rail_fast ship" speed="19.44" length="17.43" shape="572.29,262.29 568.56,265.70 566.79,268.92 565.01,272.11 561.22,275.44"/>
        <lane id=":440556700_2_2" index="2" disallow="tram rail_urban rail rail_electric rail_fast ship" speed="19.44" length="17.43" shape="574.06,264.96 570.31,268.38 568.53,271.61 566.73,274.81 562.93,278.15"/>
    </edge>
    <edge id=":440556700_5" function="internal">
        <lane id=":440556700_5_0" index="0" allow="bus bicycle" speed="3.65" length="4.67" shape="574.06,264.96 573.50,266.29 573.61,267.18 574.38,267.62 575.82,267.63"/>
    </edge>
    <edge id=":440556702_0" function="internal">
        <lane id=":440556702_0_0" index="0" allow="private emergency authority army vip passenger hov taxi bus coach delivery truck trailer motorcycle evehicle custom1 custom2" speed="16.66" length="15.11" shape="757.64,138.83 753.50,141.13 750.02,142.15 746.77,142.53 743.31,142.88"/>
    </edge>
    <edge id=":440556702_1" function="internal">
        <lane id=":440556702_1_0" index="0" disallow="tram rail_urban rail rail_electric rail_fast ship" speed="19.44" length="15.21" shape="757.64,138.83 745.10,147.45"/>
        <lane id=":440556702_1_1" index="1" disallow="tram rail_urban rail rail_electric rail_fast ship" speed="19.44" length="15.21" shape="759.44,141.47 746.91,150.09"/>
        <lane id=":440556702_1_2" index="2" disallow="tram rail_urban rail rail_electric rail_fast ship" speed="19.44" length="15.21" shape="761.24,144.11 748.72,152.74"/>
        <lane id=":440556702_1_3" index="3" disallow="tram rail_urban rail rail_electric rail_fast ship" speed="19.44" length="15.21" shape="763.04,146.76 750.52,155.38"/>
    </edge>
    <edge id=":440556702_5" function="internal">
        <lane id=":440556702_5_0" index="0" allow="bus bicycle" speed="3.65" length="1.44" shape="763.04,146.76 762.50,148.10"/>
    </edge>
    <edge id=":440556702_9" function="internal">
        <lane id=":440556702_9_0" index="0" allow="bus bicycle" speed="3.65" length="3.23" shape="762.50,148.10 762.62,148.98 763.40,149.42 764.85,149.40"/>
    </edge>
    <edge id=":440556702_6" function="internal">
        <lane id=":440556702_6_0" index="0" allow="bus bicycle" speed="19.44" length="15.19" shape="752.33,158.02 764.85,149.40"/>
    </edge>
    <edge id=":440556702_7" function="internal">
        <lane id=":440556702_7_0" index="0" allow="bus" speed="7.68" length="2.12" shape="752.33,158.02 753.53,156.27"/>
    </edge>
    <edge id=":440556702_8" function="internal">
        <lane id=":440556702_8_0" index="0" allow="bus bicycle" speed="3.65" length="1.44" shape="752.33,158.02 752.87,156.68"/>
    </edge>
    <edge id=":440556702_10" function="internal">
        <lane id=":440556702_10_0" index="0" allow="bus" speed="7.68" length="21.98" shape="753.53,156.27 755.69,153.12 754.48,147.83 749.94,143.86 743.31,142.88"/>
    </edge>
    <edge id=":440556702_11" function="internal">
        <lane id=":440556702_11_0" index="0" allow="bus bicycle" speed="3.65" length="3.23" shape="752.87,156.68 752.75,155.79 751.97,155.36 750.52,155.38"/>
    </edge>
    <edge id=":440556707_0" function="internal">
        <lane id=":440556707_0_0" index="0" allow="private emergency authority army vip passenger hov taxi bus coach delivery truck trailer motorcycle evehicle custom1 custom2" speed="25.00" length="3.00" shape="285.71,108.47 284.78,108.48 284.15,108.89 283.51,109.32 282.56,109.40"/>
        <lane id=":440556707_0_1" index="1" allow="private emergency authority army vip passenger hov taxi bus coach delivery truck trailer motorcycle evehicle custom1 custom2" speed="25.00" length="3.00" shape="284.89,111.56 281.98,112.55"/>
        <lane id=":440556707_0_2" index="2" allow="private emergency authority army vip passenger hov taxi bus coach delivery truck trailer motorcycle evehicle custom1 custom2" speed="25.00" length="3.00" shape="284.07,114.65 281.40,115.69"/>
        <lane id=":440556707_0_3" index="3" allow="private emergency authority army vip passenger hov taxi bus coach delivery truck trailer motorcycle evehicle custom1 custom2" speed="25.00" length="3.00" shape="283.24,117.75 280.82,118.84"/>
    </edge>
    <edge id=":440556707_4" function="internal">
        <lane id=":440556707_4_0" index="0" allow="private emergency authority army vip passenger hov taxi bus coach delivery truck trailer motorcycle evehicle custom1 custom2" speed="19.45" length="3.18" shape="286.94,103.87 283.73,103.11"/>
        <lane id=":440556707_4_1" index="1" allow="private emergency authority army vip passenger hov taxi bus coach delivery truck trailer motorcycle evehicle custom1 custom2" speed="19.45" length="3.18" shape="286.12,106.96 283.15,106.25"/>
    </edge>
    <edge id=":4712195023_0" function="internal">
        <lane id=":4712195023_0_0" index="0" allow="private emergency authority army vip passenger hov taxi bus coach delivery truck trailer motorcycle evehicle custom1 custom2" speed="25.00" length="8.14" shape="1075.76,347.84 1078.17,348.24 1079.88,348.12 1081.60,347.98 1084.03,348.31"/>
        <lane id=":4712195023_0_1" index="1" allow="private emergency authority army vip passenger hov taxi bus coach delivery truck trailer motorcycle evehicle custom1 custom2" speed="25.00" length="8.14" shape="1076.60,344.75 1078.98,345.14 1080.67,345.02 1082.37,344.88 1084.77,345.20"/>
        <lane id=":4712195023_0_2" index="2" allow="private emergency authority army vip passenger hov taxi bus coach delivery truck trailer motorcycle evehicle custom1 custom2" speed="25.00" length="8.14" shape="1077.45,341.67 1079.80,342.05 1081.47,341.92 1083.15,341.77 1085.52,342.09"/>
        <lane id=":4712195023_0_3" index="3" allow="private emergency authority army vip passenger hov taxi bus coach delivery truck trailer motorcycle evehicle custom1 custom2" speed="25.00" length="8.14" shape="1078.29,338.58 1080.61,338.96 1082.27,338.82 1083.92,338.67 1086.26,338.97"/>
        <lane id=":4712195023_0_4" index="4" allow="private emergency authority army vip passenger hov taxi bus coach delivery truck trailer motorcycle evehicle custom1 custom2" speed="25.00" length="8.14" shape="1079.13,335.49 1081.43,335.86 1083.06,335.72 1084.70,335.56 1087.01,335.86"/>
    </edge>
    <edge id=":4728331407_0" function="internal">
        <lane id=":4728331407_0_0" index="0" allow="bus bicycle" speed="3.65" length="4.67" shape="996.03,1.36 996.63,0.05 996.55,-0.84 995.79,-1.31 994.35,-1.36"/>
    </edge>
    <edge id=":4728331408_0" function="internal">
        <lane id=":4728331408_0_0" index="0" allow="bus bicycle" speed="3.65" length="4.67" shape="1003.65,16.08 1004.23,14.76 1004.14,13.87 1003.38,13.41 1001.93,13.38"/>
    </edge>
    <edge id=":4728334075_0" function="internal">
        <lane id=":4728334075_0_0" index="0" disallow="tram rail_urban rail rail_electric rail_fast ship" speed="19.44" length="8.59" shape="861.15,73.84 858.75,74.72 856.83,74.61 854.93,74.53 852.57,75.47"/>
        <lane id=":4728334075_0_1" index="1" disallow="tram rail_urban rail rail_electric rail_fast ship" speed="19.44" length="8.59" shape="862.82,76.58 860.44,77.44 858.54,77.32 856.66,77.22 854.32,78.15"/>
        <lane id=":4728334075_0_2" index="2" disallow="tram rail_urban rail rail_electric rail_fast ship" speed="19.44" length="8.59" shape="864.48,79.31 862.13,80.15 860.25,80.02 858.38,79.92 856.07,80.83"/>
        <lane id=":4728334075_0_3" index="3" disallow="tram rail_urban rail rail_electric rail_fast ship" speed="19.44" length="8.59" shape="864.48,79.31 857.82,83.50"/>
    </edge>
    <edge id=":4728334075_4" function="internal">
        <lane id=":4728334075_4_0" index="0" allow="bus bicycle" speed="19.44" length="7.76" shape="859.57,86.18 866.14,82.05"/>
    </edge>
    <edge id=":4728345976_0" function="internal">
        <lane id=":4728345976_0_0" index="0" allow="private emergency authority army vip passenger hov taxi bus coach delivery truck trailer motorcycle evehicle custom1 custom2" speed="13.89" length="8.21" shape="708.97,145.31 706.57,145.19 704.94,144.73 703.31,144.27 700.90,144.15"/>
        <lane id=":4728345976_0_1" index="1" allow="private emergency authority army vip passenger hov taxi bus coach delivery truck trailer motorcycle evehicle custom1 custom2" speed="13.89" length="8.21" shape="708.97,145.31 706.59,145.69 705.02,146.33 703.45,146.96 701.07,147.34"/>
    </edge>
    <edge id=":479789547-AddedOnRampNode_0" function="internal">
        <lane id=":479789547-AddedOnRampNode_0_0" index="0" allow="private emergency authority army vip passenger hov taxi bus coach delivery truck trailer motorcycle evehicle custom1 custom2" speed="25.00" length="8.00" shape="189.97,89.05 182.10,87.59"/>
        <lane id=":479789547-AddedOnRampNode_0_1" index="1" allow="private emergency authority army vip passenger hov taxi bus coach delivery truck trailer motorcycle evehicle custom1 custom2" speed="25.00" length="8.00" shape="189.38,92.19 181.52,90.74"/>
        <lane id=":479789547-AddedOnRampNode_0_2" index="2" allow="private emergency authority army vip passenger hov taxi bus coach delivery truck trailer motorcycle evehicle custom1 custom2" speed="25.00" length="8.00" shape="188.80,95.34 180.94,93.88"/>
        <lane id=":479789547-AddedOnRampNode_0_3" index="3" allow="private emergency authority army vip passenger hov taxi bus coach delivery truck trailer motorcycle evehicle custom1 custom2" speed="25.00" length="8.00" shape="188.22,98.49 180.36,97.03"/>
        <lane id=":479789547-AddedOnRampNode_0_4" index="4" allow="private emergency authority army vip passenger hov taxi bus coach delivery truck trailer motorcycle evehicle custom1 custom2" speed="25.00" length="8.00" shape="187.64,101.63 179.77,100.18"/>
    </edge>
    <edge id=":6177646422_0" function="internal">
        <lane id=":6177646422_0_0" index="0" allow="bus bicycle" speed="3.65" length="0.14" shape="775.25,156.88 775.19,157.00"/>
    </edge>
    <edge id=":6177646422_4" function="internal">
        <lane id=":6177646422_4_0" index="0" allow="bus bicycle" speed="3.65" length="4.54" shape="775.19,157.00 774.65,158.19 774.74,159.08 775.50,159.55 776.94,159.60"/>
    </edge>
    <edge id=":6177646422_1" function="internal">
        <lane id=":6177646422_1_0" index="0" disallow="tram rail_urban rail rail_electric rail_fast ship" speed="19.44" length="5.63" shape="775.34,162.53 780.33,165.03"/>
        <lane id=":6177646422_1_1" index="1" disallow="tram rail_urban rail rail_electric rail_fast ship" speed="19.44" length="5.63" shape="773.57,159.86 778.63,162.31"/>
        <lane id=":6177646422_1_2" index="2" disallow="tram rail_urban rail rail_electric rail_fast ship" speed="19.44" length="5.63" shape="771.80,157.20 776.94,159.60"/>
    </edge>
    <edge id=":628449302-AddedOffRampNode_0" function="internal">
        <lane id=":628449302-AddedOffRampNode_0_0" index="0" allow="private emergency authority army vip passenger hov taxi bus coach delivery truck trailer motorcycle evehicle custom1 custom2" speed="25.00" length="8.13" shape="1126.55,319.64 1124.28,318.56 1123.06,317.12 1121.83,315.68 1119.56,314.60"/>
        <lane id=":628449302-AddedOffRampNode_0_1" index="1" allow="private emergency authority army vip passenger hov taxi bus coach delivery truck trailer motorcycle evehicle custom1 custom2" speed="25.00" length="8.13" shape="1126.55,319.64 1118.79,317.70"/>
        <lane id=":628449302-AddedOffRampNode_0_2" index="2" allow="private emergency authority army vip passenger hov taxi bus coach delivery truck trailer motorcycle evehicle custom1 custom2" speed="25.00" length="8.13" shape="1125.78,322.74 1118.01,320.81"/>
        <lane id=":628449302-AddedOffRampNode_0_3" index="3" allow="private emergency authority army vip passenger hov taxi bus coach delivery truck trailer motorcycle evehicle custom1 custom2" speed="25.00" length="8.13" shape="1125.00,325.85 1117.24,323.91"/>
        <lane id=":628449302-AddedOffRampNode_0_4" index="4" allow="private emergency authority army vip passenger hov taxi bus coach delivery truck trailer motorcycle evehicle custom1 custom2" speed="25.00" length="8.13" shape="1124.23,328.95 1116.47,327.02"/>
        <lane id=":628449302-AddedOffRampNode_0_5" index="5" allow="private emergency authority army vip passenger hov taxi bus coach delivery truck trailer motorcycle evehicle custom1 custom2" speed="25.00" length="8.13" shape="1123.46,332.06 1115.69,330.12"/>
    </edge>
    <edge id=":635161211-AddedOffRampNode_0" function="internal">
        <lane id=":635161211-AddedOffRampNode_0_0" index="0" allow="private emergency authority army vip passenger hov taxi bus coach delivery truck trailer motorcycle evehicle custom1 custom2" speed="25.00" length="8.13" shape="164.61,119.07 166.94,120.01 168.24,121.38 169.55,122.75 171.88,123.69"/>
        <lane id=":635161211-AddedOffRampNode_0_1" index="1" allow="private emergency authority army vip passenger hov taxi bus coach delivery truck trailer motorcycle evehicle custom1 custom2" speed="25.00" length="8.13" shape="164.61,119.07 172.47,120.55"/>
        <lane id=":635161211-AddedOffRampNode_0_2" index="2" allow="private emergency authority army vip passenger hov taxi bus coach delivery truck trailer motorcycle evehicle custom1 custom2" speed="25.00" length="8.13" shape="165.20,115.92 173.07,117.40"/>
        <lane id=":635161211-AddedOffRampNode_0_3" index="3" allow="private emergency authority army vip passenger hov taxi bus coach delivery truck trailer motorcycle evehicle custom1 custom2" speed="25.00" length="8.13" shape="165.80,112.78 173.66,114.26"/>
        <lane id=":635161211-AddedOffRampNode_0_4" index="4" allow="private emergency authority army vip passenger hov taxi bus coach delivery truck trailer motorcycle evehicle custom1 custom2" speed="25.00" length="8.13" shape="166.39,109.63 174.25,111.12"/>
        <lane id=":635161211-AddedOffRampNode_0_5" index="5" allow="private emergency authority army vip passenger hov taxi bus coach delivery truck trailer motorcycle evehicle custom1 custom2" speed="25.00" length="8.13" shape="166.98,106.49 174.85,107.97"/>
    </edge>