<?xml version="1.0" encoding="UTF-8"?>

<!-- generated on 2023-07-20 11:14:52 by Eclipse SUMO netconvert Version 1.17.0
<configuration xmlns:xsi="http://www.w3.org/2001/XMLSchema-instance" xsi:noNamespaceSchemaLocation="http://sumo.dlr.de/xsd/netconvertConfiguration.xsd">

    <input>
        <sumo-net-file value="osm.net.xml.gz"/>
    </input>

    <output>
        <output-file value="osm.net.xml"/>
        <output.street-names value="true"/>
    </output>

    <processing>
        <geometry.min-radius.fix.railways value="false"/>
        <geometry.max-grade.fix value="false"/>
        <offset.disable-normalization value="true"/>
        <lefthand value="1"/>
    </processing>

    <junctions>
        <no-turnarounds value="true"/>
        <junctions.corner-detail value="5"/>
        <junctions.limit-turn-speed value="5.50"/>
        <rectangular-lane-cut value="0"/>
    </junctions>

    <pedestrian>
        <walkingareas value="0"/>
    </pedestrian>

</configuration>
-->

<net version="1.16" junctionCornerDetail="5" lefthand="true" limitTurnSpeed="5.50" xmlns:xsi="http://www.w3.org/2001/XMLSchema-instance" xsi:noNamespaceSchemaLocation="http://sumo.dlr.de/xsd/net_file.xsd">

    <location netOffset="-370350.04,-148250.92" convBoundary="0.00,0.00,865.74,693.21" origBoundary="103.834632,1.340991,103.842411,1.347263" projParameter="+proj=utm +zone=48 +ellps=WGS84 +datum=WGS84 +units=m +no_defs"/>

    <type id="highway.bridleway" priority="1" numLanes="1" speed="2.78" allow="pedestrian" oneway="1" width="2.00"/>
    <type id="highway.bus_guideway" priority="1" numLanes="1" speed="27.78" allow="bus" oneway="1"/>
    <type id="highway.cycleway" priority="1" numLanes="1" speed="5.56" allow="bicycle" oneway="0" width="1.00"/>
    <type id="highway.footway" priority="1" numLanes="1" speed="2.78" allow="pedestrian" oneway="1" width="2.00"/>
    <type id="highway.ford" priority="1" numLanes="1" speed="2.78" allow="army" oneway="0"/>
    <type id="highway.living_street" priority="2" numLanes="1" speed="2.78" disallow="tram rail_urban rail rail_electric rail_fast ship" oneway="0"/>
    <type id="highway.motorway" priority="14" numLanes="2" speed="39.44" allow="private emergency authority army vip passenger hov taxi bus coach delivery truck trailer motorcycle evehicle custom1 custom2" oneway="1"/>
    <type id="highway.motorway_link" priority="9" numLanes="1" speed="22.22" allow="private emergency authority army vip passenger hov taxi bus coach delivery truck trailer motorcycle evehicle custom1 custom2" oneway="1"/>
    <type id="highway.path" priority="1" numLanes="1" speed="5.56" allow="pedestrian bicycle" oneway="0" width="2.00"/>
    <type id="highway.pedestrian" priority="1" numLanes="1" speed="2.78" allow="pedestrian" oneway="1" width="2.00"/>
    <type id="highway.primary" priority="12" numLanes="2" speed="27.78" disallow="tram rail_urban rail rail_electric rail_fast ship" oneway="0"/>
    <type id="highway.primary_link" priority="7" numLanes="1" speed="22.22" disallow="tram rail_urban rail rail_electric rail_fast ship" oneway="0"/>
    <type id="highway.raceway" priority="15" numLanes="2" speed="83.33" allow="vip" oneway="0"/>
    <type id="highway.residential" priority="3" numLanes="1" speed="13.89" disallow="tram rail_urban rail rail_electric rail_fast ship" oneway="0"/>
    <type id="highway.secondary" priority="11" numLanes="1" speed="27.78" disallow="tram rail_urban rail rail_electric rail_fast ship" oneway="0"/>
    <type id="highway.secondary_link" priority="6" numLanes="1" speed="22.22" disallow="tram rail_urban rail rail_electric rail_fast ship" oneway="0"/>
    <type id="highway.service" priority="1" numLanes="1" speed="5.56" allow="pedestrian delivery bicycle" oneway="0"/>
    <type id="highway.stairs" priority="1" numLanes="1" speed="1.39" allow="pedestrian" oneway="1" width="2.00"/>
    <type id="highway.step" priority="1" numLanes="1" speed="1.39" allow="pedestrian" oneway="1" width="2.00"/>
    <type id="highway.steps" priority="1" numLanes="1" speed="1.39" allow="pedestrian" oneway="1" width="2.00"/>
    <type id="highway.tertiary" priority="10" numLanes="1" speed="22.22" disallow="tram rail_urban rail rail_electric rail_fast ship" oneway="0"/>
    <type id="highway.tertiary_link" priority="5" numLanes="1" speed="22.22" disallow="tram rail_urban rail rail_electric rail_fast ship" oneway="0"/>
    <type id="highway.track" priority="1" numLanes="1" speed="5.56" allow="pedestrian motorcycle moped bicycle" oneway="0"/>
    <type id="highway.trunk" priority="13" numLanes="2" speed="27.78" disallow="pedestrian bicycle tram rail_urban rail rail_electric rail_fast ship" oneway="0"/>
    <type id="highway.trunk_link" priority="8" numLanes="1" speed="22.22" disallow="pedestrian bicycle tram rail_urban rail rail_electric rail_fast ship" oneway="0"/>
    <type id="highway.unclassified" priority="4" numLanes="1" speed="13.89" disallow="tram rail_urban rail rail_electric rail_fast ship" oneway="0"/>
    <type id="highway.unsurfaced" priority="1" numLanes="1" speed="8.33" disallow="tram rail_urban rail rail_electric rail_fast ship" oneway="0"/>
    <type id="railway.highspeed" priority="21" numLanes="1" speed="69.44" allow="rail_fast" oneway="1"/>
    <type id="railway.light_rail" priority="19" numLanes="1" speed="27.78" allow="rail_urban" oneway="1"/>
    <type id="railway.preserved" priority="16" numLanes="1" speed="27.78" allow="rail" oneway="1"/>
    <type id="railway.rail" priority="20" numLanes="1" speed="44.44" allow="rail" oneway="1"/>
    <type id="railway.subway" priority="18" numLanes="1" speed="27.78" allow="rail_urban" oneway="1"/>
    <type id="railway.tram" priority="17" numLanes="1" speed="13.89" allow="tram" oneway="1"/>

    <edge id=":1717654203_0" function="internal">
        <lane id=":1717654203_0_0" index="0" disallow="pedestrian bicycle tram rail_urban rail rail_electric rail_fast ship" speed="13.89" length="9.81" shape="505.75,309.94 507.92,311.48 508.86,313.20 509.69,315.10 511.55,317.15"/>
        <lane id=":1717654203_0_1" index="1" disallow="pedestrian bicycle tram rail_urban rail rail_electric rail_fast ship" speed="13.89" length="9.81" shape="507.08,307.03 509.44,308.66 510.52,310.46 511.48,312.44 513.51,314.62"/>
    </edge>
    <edge id=":175280227_0" function="internal">
        <lane id=":175280227_0_0" index="0" disallow="pedestrian bicycle tram rail_urban rail rail_electric rail_fast ship" speed="19.44" length="8.19" shape="434.50,416.79 434.59,414.37 435.02,412.73 435.44,411.10 435.49,408.69"/>
        <lane id=":175280227_0_1" index="1" disallow="pedestrian bicycle tram rail_urban rail rail_electric rail_fast ship" speed="19.44" length="8.19" shape="431.31,417.00 431.39,414.61 431.83,412.97 432.25,411.35 432.31,408.95"/>
    </edge>
    <edge id=":1863993104_0" function="internal">
        <lane id=":1863993104_0_0" index="0" disallow="pedestrian bicycle tram rail_urban rail rail_electric rail_fast ship" speed="8.18" length="5.60" shape="446.28,319.33 446.24,317.73 446.55,316.64 447.21,315.65 448.24,314.34"/>
    </edge>
    <edge id=":1863993104_1" function="internal">
        <lane id=":1863993104_1_0" index="0" disallow="tram rail_urban rail rail_electric rail_fast ship" speed="16.67" length="6.24" shape="443.10,319.67 443.16,317.85 443.58,316.62 444.00,315.39 444.06,313.57"/>
        <lane id=":1863993104_1_1" index="1" disallow="tram rail_urban rail rail_electric rail_fast ship" speed="16.67" length="6.24" shape="439.92,320.01 439.97,318.19 440.40,316.96 440.82,315.73 440.87,313.91"/>
        <lane id=":1863993104_1_2" index="2" disallow="tram rail_urban rail rail_electric rail_fast ship" speed="16.67" length="6.24" shape="436.73,320.34 436.79,318.53 437.21,317.30 437.63,316.06 437.69,314.25"/>
    </edge>
    <edge id=":241598615_0" function="internal">
        <lane id=":241598615_0_0" index="0" disallow="pedestrian bicycle tram rail_urban rail rail_electric rail_fast ship" speed="3.65" length="1.33" shape="419.08,417.98 418.26,416.93"/>
    </edge>
    <edge id=":241598615_3" function="internal">
        <lane id=":241598615_3_0" index="0" disallow="pedestrian bicycle tram rail_urban rail rail_electric rail_fast ship" speed="3.65" length="3.34" shape="418.26,416.93 418.19,416.85 417.37,416.51 416.60,416.97 415.89,418.23"/>
    </edge>
    <edge id=":241598615_1" function="internal">
        <lane id=":241598615_1_0" index="0" disallow="pedestrian bicycle tram rail_urban rail rail_electric rail_fast ship" speed="13.89" length="8.22" shape="413.76,410.34 413.65,412.77 413.20,414.41 412.77,416.06 412.70,418.48"/>
        <lane id=":241598615_1_1" index="1" disallow="pedestrian bicycle tram rail_urban rail rail_electric rail_fast ship" speed="13.89" length="8.22" shape="416.96,410.17 416.84,412.57 416.39,414.20 415.96,415.83 415.89,418.23"/>
    </edge>
    <edge id=":241598786_0" function="internal">
        <lane id=":241598786_0_0" index="0" allow="bus bicycle" speed="3.65" length="4.67" shape="423.46,629.87 424.36,630.99 425.20,631.31 425.96,630.84 426.64,629.57"/>
    </edge>
    <edge id=":243415663_0" function="internal">
        <lane id=":243415663_0_0" index="0" disallow="pedestrian bicycle tram rail_urban rail rail_electric rail_fast ship" speed="15.28" length="27.25" shape="396.25,327.52 394.57,333.99 392.32,339.56 390.67,345.82 390.79,354.33"/>
        <lane id=":243415663_0_1" index="1" disallow="pedestrian bicycle tram rail_urban rail rail_electric rail_fast ship" speed="15.28" length="27.25" shape="399.42,327.95 397.75,334.34 395.51,339.71 393.86,345.69 393.96,353.89"/>
    </edge>
    <edge id=":243415663_2" function="internal">
        <lane id=":243415663_2_0" index="0" allow="bus bicycle" speed="3.65" length="2.34" shape="397.13,353.46 396.18,352.38 395.33,352.09"/>
    </edge>
    <edge id=":243415663_4" function="internal">
        <lane id=":243415663_4_0" index="0" allow="bus bicycle" speed="3.65" length="2.34" shape="395.33,352.09 394.59,352.60 393.96,353.89"/>
    </edge>
    <edge id=":243415663_3" function="internal">
        <lane id=":243415663_3_0" index="0" disallow="tram rail_urban rail rail_electric rail_fast ship" speed="16.67" length="27.83" shape="392.03,327.52 391.34,331.95 389.36,337.88 387.60,345.44 387.62,354.77"/>
    </edge>
    <edge id=":243415664_0" function="internal">
        <lane id=":243415664_0_0" index="0" disallow="tram rail_urban rail rail_electric rail_fast ship" speed="16.67" length="14.91" shape="372.73,241.79 375.51,245.54 377.03,248.77 377.86,251.87 378.61,255.24"/>
    </edge>
    <edge id=":243415664_1" function="internal">
        <lane id=":243415664_1_0" index="0" disallow="pedestrian bicycle tram rail_urban rail rail_electric rail_fast ship" speed="15.28" length="14.92" shape="372.73,241.79 382.97,252.77"/>
        <lane id=":243415664_1_1" index="1" disallow="pedestrian bicycle tram rail_urban rail rail_electric rail_fast ship" speed="15.28" length="14.92" shape="375.14,239.69 385.32,250.60"/>
        <lane id=":243415664_1_2" index="2" disallow="pedestrian bicycle tram rail_urban rail rail_electric rail_fast ship" speed="15.28" length="14.92" shape="377.55,237.58 387.67,248.43"/>
    </edge>
    <edge id=":243415666_0" function="internal">
        <lane id=":243415666_0_0" index="0" allow="bus bicycle" speed="16.67" length="8.01" shape="408.01,440.67 407.10,432.71"/>
    </edge>
    <edge id=":243415666_1" function="internal">
        <lane id=":243415666_1_0" index="0" disallow="tram rail_urban rail rail_electric rail_fast ship" speed="16.67" length="8.80" shape="397.56,433.81 398.34,436.20 399.61,437.60 400.88,439.00 401.65,441.39"/>
        <lane id=":243415666_1_1" index="1" disallow="tram rail_urban rail rail_electric rail_fast ship" speed="16.67" length="8.80" shape="400.74,433.45 401.52,435.83 402.79,437.24 404.06,438.64 404.83,441.03"/>
    </edge>
    <edge id=":2509969155_0" function="internal">
        <lane id=":2509969155_0_0" index="0" disallow="pedestrian bicycle tram rail_urban rail rail_electric rail_fast ship" speed="13.89" length="23.12" shape="634.16,382.48 613.88,371.21"/>
        <lane id=":2509969155_0_1" index="1" disallow="pedestrian bicycle tram rail_urban rail rail_electric rail_fast ship" speed="13.89" length="23.12" shape="632.45,385.18 612.31,374.00"/>
    </edge>
    <edge id=":2509969155_2" function="internal">
        <lane id=":2509969155_2_0" index="0" disallow="pedestrian bicycle tram rail_urban rail rail_electric rail_fast ship" speed="13.89" length="22.87" shape="632.45,385.18 626.18,381.95 620.26,380.12 614.99,379.42 610.69,379.62"/>
    </edge>
    <edge id=":2509969589_0" function="internal">
        <lane id=":2509969589_0_0" index="0" disallow="pedestrian bicycle tram rail_urban rail rail_electric rail_fast ship" speed="6.83" length="8.10" shape="599.62,394.35 598.70,396.46 598.47,398.40 598.95,400.18 600.13,401.79"/>
    </edge>
    <edge id=":2509969589_1" function="internal">
        <lane id=":2509969589_1_0" index="0" disallow="pedestrian bicycle tram rail_urban rail rail_electric rail_fast ship" speed="13.89" length="9.36" shape="591.15,397.61 597.87,404.05"/>
        <lane id=":2509969589_1_1" index="1" disallow="pedestrian bicycle tram rail_urban rail rail_electric rail_fast ship" speed="13.89" length="9.36" shape="593.33,395.27 600.13,401.79"/>
    </edge>
    <edge id=":439978075_0" function="internal">
        <lane id=":439978075_0_0" index="0" disallow="pedestrian bicycle tram rail_urban rail rail_electric rail_fast ship" speed="19.44" length="8.06" shape="440.43,220.73 438.56,219.28 437.50,217.99 436.41,216.73 434.49,215.37"/>
    </edge>
    <edge id=":439978082_0" function="internal">
        <lane id=":439978082_0_0" index="0" disallow="pedestrian bicycle tram rail_urban rail rail_electric rail_fast ship" speed="13.89" length="3.81" shape="606.79,416.95 607.89,417.21 608.63,417.44 609.33,417.78 610.29,418.37"/>
    </edge>
    <edge id=":439978082_1" function="internal">
        <lane id=":439978082_1_0" index="0" disallow="pedestrian bicycle tram rail_urban rail rail_electric rail_fast ship" speed="13.89" length="6.43" shape="606.57,411.89 608.10,413.14 609.20,413.92 610.35,414.64 612.02,415.68"/>
        <lane id=":439978082_1_1" index="1" disallow="pedestrian bicycle tram rail_urban rail rail_electric rail_fast ship" speed="13.89" length="6.43" shape="608.65,409.45 610.07,410.62 611.11,411.35 612.18,412.01 613.75,412.99"/>
    </edge>
    <edge id=":439978124_0" function="internal">
        <lane id=":439978124_0_0" index="0" disallow="pedestrian bicycle tram rail_urban rail rail_electric rail_fast ship" speed="9.40" length="11.61" shape="462.61,300.59 465.54,298.96 468.35,298.12 471.02,298.06 473.57,298.80"/>
    </edge>
    <edge id=":439978124_1" function="internal">
        <lane id=":439978124_1_0" index="0" disallow="pedestrian bicycle tram rail_urban rail rail_electric rail_fast ship" speed="13.89" length="11.96" shape="462.47,296.13 465.79,296.86 468.13,297.15 470.41,297.60 473.57,298.80"/>
        <lane id=":439978124_1_1" index="1" disallow="pedestrian bicycle tram rail_urban rail rail_electric rail_fast ship" speed="13.89" length="11.96" shape="463.32,293.05 466.79,293.82 469.23,294.14 471.60,294.63 474.89,295.89"/>
        <lane id=":439978124_1_2" index="2" disallow="pedestrian bicycle tram rail_urban rail rail_electric rail_fast ship" speed="13.89" length="11.96" shape="464.18,289.96 467.79,290.77 470.32,291.13 472.80,291.65 476.22,292.97"/>
    </edge>
    <edge id=":439978126_0" function="internal">
        <lane id=":439978126_0_0" index="0" disallow="pedestrian bicycle tram rail_urban rail rail_electric rail_fast ship" speed="15.28" length="17.67" shape="439.24,252.28 434.79,249.81 431.66,248.14 428.89,246.06 425.51,242.35"/>
        <lane id=":439978126_0_1" index="1" disallow="pedestrian bicycle tram rail_urban rail rail_electric rail_fast ship" speed="15.28" length="17.67" shape="437.59,255.02 432.85,252.38 429.55,250.57 426.62,248.33 423.03,244.37"/>
    </edge>
    <edge id=":439978126_2" function="internal">
        <lane id=":439978126_2_0" index="0" disallow="tram rail_urban rail rail_electric rail_fast ship" speed="16.67" length="17.67" shape="433.63,258.64 431.92,253.46 430.61,249.91 428.79,246.66 425.51,242.35"/>
        <lane id=":439978126_2_1" index="1" disallow="tram rail_urban rail rail_electric rail_fast ship" speed="16.67" length="17.67" shape="430.74,260.08 429.11,255.09 427.89,251.66 426.16,248.52 423.03,244.37"/>
        <lane id=":439978126_2_2" index="2" disallow="tram rail_urban rail rail_electric rail_fast ship" speed="16.67" length="17.67" shape="427.85,261.51 426.30,256.71 425.16,253.41 423.54,250.38 420.55,246.39"/>
    </edge>
    <edge id=":439978127_0" function="internal">
        <lane id=":439978127_0_0" index="0" disallow="pedestrian bicycle tram rail_urban rail rail_electric rail_fast ship" speed="13.89" length="32.29" shape="510.95,297.23 502.83,291.46 495.90,287.31 489.66,283.81 483.61,279.97"/>
        <lane id=":439978127_0_1" index="1" disallow="pedestrian bicycle tram rail_urban rail rail_electric rail_fast ship" speed="13.89" length="32.29" shape="508.99,299.76 500.89,294.00 494.00,289.88 487.80,286.41 481.76,282.59"/>
    </edge>
    <edge id=":439978127_2" function="internal">
        <lane id=":439978127_2_0" index="0" disallow="pedestrian bicycle tram rail_urban rail rail_electric rail_fast ship" speed="13.89" length="32.39" shape="508.99,299.76 500.73,294.29 493.41,290.94 486.58,288.60 479.80,286.12"/>
        <lane id=":439978127_2_1" index="1" disallow="pedestrian bicycle tram rail_urban rail rail_electric rail_fast ship" speed="13.89" length="31.57" shape="507.02,302.28 498.87,296.88 491.80,293.68 485.22,291.48 478.55,289.06"/>
    </edge>
    <edge id=":5157819234_0" function="internal">
        <lane id=":5157819234_0_0" index="0" disallow="pedestrian bicycle tram rail_urban rail rail_electric rail_fast ship" speed="13.89" length="8.12" shape="599.92,363.36 598.02,362.00 596.95,360.75 595.90,359.46 594.05,358.01"/>
        <lane id=":5157819234_0_1" index="1" disallow="pedestrian bicycle tram rail_urban rail rail_electric rail_fast ship" speed="13.89" length="8.12" shape="598.35,366.15 596.41,364.77 595.32,363.50 594.24,362.20 592.35,360.73"/>
        <lane id=":5157819234_0_2" index="2" disallow="pedestrian bicycle tram rail_urban rail rail_electric rail_fast ship" speed="13.89" length="8.12" shape="598.35,366.15 596.14,365.19 594.47,364.86 592.82,364.50 590.66,363.44"/>
    </edge>
    <edge id=":5970979168_0" function="internal">
        <lane id=":5970979168_0_0" index="0" disallow="tram rail_urban rail rail_electric rail_fast ship" speed="16.67" length="8.17" shape="450.56,405.65 450.68,403.23 451.14,401.59 451.58,399.95 451.64,397.53"/>
        <lane id=":5970979168_0_1" index="1" disallow="tram rail_urban rail rail_electric rail_fast ship" speed="16.67" length="8.17" shape="447.36,405.81 447.49,403.41 447.95,401.79 448.39,400.17 448.45,397.78"/>
        <lane id=":5970979168_0_2" index="2" disallow="tram rail_urban rail rail_electric rail_fast ship" speed="16.67" length="8.17" shape="447.36,405.81 446.99,403.46 446.35,401.91 445.69,400.37 445.26,398.03"/>
    </edge>
    <edge id=":5973825338_0" function="internal">
        <lane id=":5973825338_0_0" index="0" disallow="tram rail_urban rail rail_electric rail_fast ship" speed="16.67" length="8.18" shape="448.47,356.37 448.53,353.94 448.94,352.28 449.33,350.62 449.33,348.19"/>
        <lane id=":5973825338_0_1" index="1" disallow="tram rail_urban rail rail_electric rail_fast ship" speed="16.67" length="8.18" shape="448.47,356.37 448.03,354.00 447.35,352.44 446.64,350.89 446.14,348.52"/>
        <lane id=":5973825338_0_2" index="2" disallow="tram rail_urban rail rail_electric rail_fast ship" speed="16.67" length="8.18" shape="445.28,356.62 444.84,354.27 444.16,352.74 443.46,351.20 442.96,348.86"/>
        <lane id=":5973825338_0_3" index="3" disallow="tram rail_urban rail rail_electric rail_fast ship" speed="16.67" length="8.18" shape="442.09,356.86 441.65,354.54 440.97,353.03 440.27,351.51 439.78,349.20"/>
    </edge>
    <edge id=":6902923574_0" function="internal">
        <lane id=":6902923574_0_0" index="0" disallow="pedestrian bicycle tram rail_urban rail rail_electric rail_fast ship" speed="3.65" length="4.67" shape="422.79,506.89 423.69,508.03 424.51,508.37 425.28,507.90 425.99,506.65"/>
    </edge>
    <edge id=":7334138318_0" function="internal">
        <lane id=":7334138318_0_0" index="0" disallow="tram rail_urban rail rail_electric rail_fast ship" speed="16.67" length="7.47" shape="358.57,223.77 359.94,225.33 360.55,226.67 361.10,228.06 362.29,229.80"/>
        <lane id=":7334138318_0_1" index="1" disallow="tram rail_urban rail rail_electric rail_fast ship" speed="16.67" length="7.47" shape="360.70,221.38 362.16,223.02 362.83,224.42 363.43,225.87 364.70,227.70"/>
        <lane id=":7334138318_0_2" index="2" disallow="tram rail_urban rail rail_electric rail_fast ship" speed="16.67" length="7.47" shape="360.70,221.38 362.56,222.71 364.04,223.36 365.45,224.08 367.11,225.60"/>
    </edge>
    <edge id=":cluster_1717654189_239934978_239935460_0" function="internal">
        <lane id=":cluster_1717654189_239934978_239935460_0_0" index="0" disallow="pedestrian bicycle tram rail_urban rail rail_electric rail_fast ship" speed="13.89" length="38.38" shape="450.86,276.79 441.97,276.71 431.36,278.66 421.01,281.93 412.88,285.81"/>
        <lane id=":cluster_1717654189_239934978_239935460_0_1" index="1" disallow="pedestrian bicycle tram rail_urban rail rail_electric rail_fast ship" speed="13.89" length="38.38" shape="450.24,279.93 441.71,279.78 431.90,281.59 422.34,284.71 414.57,288.53"/>
    </edge>
    <edge id=":cluster_1717654189_239934978_239935460_2" function="internal">
        <lane id=":cluster_1717654189_239934978_239935460_2_0" index="0" disallow="pedestrian bicycle tram rail_urban rail rail_electric rail_fast ship" speed="4.79" length="9.60" shape="450.24,279.93 447.51,281.07 446.39,282.52 446.88,284.29 448.98,286.38"/>
    </edge>
    <edge id=":cluster_1717654189_239934978_239935460_3" function="internal">
        <lane id=":cluster_1717654189_239934978_239935460_3_0" index="0" disallow="tram rail_urban rail rail_electric rail_fast ship" speed="16.67" length="25.58" shape="442.36,297.57 441.71,289.78 441.33,284.40 440.40,279.15 438.13,271.72"/>
        <lane id=":cluster_1717654189_239934978_239935460_3_1" index="1" disallow="tram rail_urban rail rail_electric rail_fast ship" speed="16.67" length="25.58" shape="439.18,297.91 438.56,290.33 438.19,285.10 437.30,279.99 435.11,272.76"/>
        <lane id=":cluster_1717654189_239934978_239935460_3_2" index="2" disallow="tram rail_urban rail rail_electric rail_fast ship" speed="16.67" length="25.58" shape="435.99,298.24 435.40,290.88 435.06,285.80 434.21,280.83 432.08,273.80"/>
    </edge>
    <edge id=":cluster_1717654189_239934978_239935460_6" function="internal">
        <lane id=":cluster_1717654189_239934978_239935460_6_0" index="0" disallow="pedestrian bicycle tram rail_urban rail rail_electric rail_fast ship" speed="9.87" length="29.74" shape="435.99,298.24 433.63,290.27 428.93,285.93 422.41,285.31 414.57,288.53"/>
    </edge>
    <edge id=":cluster_1717654189_239934978_239935460_7" function="internal">
        <lane id=":cluster_1717654189_239934978_239935460_7_0" index="0" disallow="pedestrian bicycle tram rail_urban rail rail_electric rail_fast ship" speed="13.89" length="36.49" shape="412.97,278.81 421.63,284.02 429.55,287.69 437.88,290.37 447.75,292.66"/>
        <lane id=":cluster_1717654189_239934978_239935460_7_1" index="1" disallow="pedestrian bicycle tram rail_urban rail rail_electric rail_fast ship" speed="13.89" length="36.49" shape="414.73,276.13 423.21,281.28 430.74,284.78 438.68,287.31 448.37,289.52"/>
        <lane id=":cluster_1717654189_239934978_239935460_7_2" index="2" disallow="pedestrian bicycle tram rail_urban rail rail_electric rail_fast ship" speed="13.89" length="36.49" shape="416.49,273.46 424.79,278.53 431.93,281.87 439.47,284.24 448.98,286.38"/>
    </edge>
    <edge id=":cluster_1717654189_239934978_239935460_10" function="internal">
        <lane id=":cluster_1717654189_239934978_239935460_10_0" index="0" disallow="pedestrian bicycle tram rail_urban rail rail_electric rail_fast ship" speed="8.09" length="24.65" shape="416.49,273.46 423.52,277.13 430.30,278.91 434.84,277.80 435.11,272.76"/>
        <lane id=":cluster_1717654189_239934978_239935460_10_1" index="1" disallow="pedestrian bicycle tram rail_urban rail rail_electric rail_fast ship" speed="7.44" length="20.59" shape="416.49,273.46 422.38,276.67 428.06,278.49 431.85,277.88 432.08,273.80"/>
    </edge>

    <edge id="-480232181" from="241598786" to="243415666" name="Upper Thomson Road" priority="12" type="highway.primary" shape="425.05,629.72 422.06,596.93 421.16,570.58 420.06,561.01 405.97,436.87">
        <lane id="-480232181_0" index="0" allow="bus bicycle" speed="16.67" length="189.89" shape="426.64,629.57 423.66,596.83 422.76,570.46 421.65,560.83 408.01,440.67">
            <param key="origId" value="480232181"/>
        </lane>
    </edge>
    <edge id="-480232182" from="243415666" to="243415663" name="Upper Thomson Road" priority="12" type="highway.primary" shape="405.97,436.87 402.98,410.99 399.66,383.44 394.94,349.28">
        <lane id="-480232182_0" index="0" allow="bus bicycle" speed="16.67" length="79.88" shape="407.10,432.71 404.57,410.80 401.25,383.23 397.13,353.46">
            <param key="origId" value="480232182"/>
        </lane>
    </edge>
    <edge id="-737307879" from="6902923574" to="241598615" name="Lornie Road" priority="8" type="highway.trunk_link">
        <lane id="-737307879_0" index="0" disallow="pedestrian bicycle tram rail_urban rail rail_electric rail_fast ship" speed="13.89" length="88.93" shape="425.99,506.65 419.08,417.98">
            <param key="origId" value="737307879"/>
        </lane>
    </edge>
    <edge id="168151943" from="439978043" to="439984982" name="Lornie Viaduct" priority="13" type="highway.trunk" spreadType="center" shape="292.20,176.59 321.59,193.17 349.49,206.08 379.68,218.78 423.02,232.76 450.13,245.41 472.04,258.52 496.45,274.19 515.61,290.94 525.50,299.58 546.66,321.40 553.37,329.01 559.98,338.01 575.86,361.03 588.08,374.86 610.34,397.19 632.82,412.25 654.01,424.86 676.01,435.93 697.04,444.53 719.06,450.31 737.92,453.26 756.94,454.90 779.06,454.38 801.39,451.68 821.15,448.05 840.65,440.05 858.49,431.64">
        <lane id="168151943_0" index="0" disallow="pedestrian bicycle tram rail_urban rail rail_electric rail_fast ship" speed="16.67" length="660.99" shape="291.41,177.98 320.86,194.60 348.84,207.54 379.12,220.28 422.43,234.25 449.38,246.83 471.20,259.88 495.49,275.47 514.56,292.14 524.40,300.74 545.48,322.49 552.12,330.01 558.68,338.94 574.60,362.02 586.91,375.96 609.32,398.43 631.97,413.60 653.24,426.26 675.35,437.39 696.53,446.05 718.73,451.88 737.73,454.85 756.89,456.50 779.18,455.98 801.63,453.26 821.60,449.59 841.30,441.51 859.17,433.09">
            <param key="origId" value="168151943 168151944"/>
        </lane>
        <lane id="168151943_1" index="1" disallow="pedestrian bicycle tram rail_urban rail rail_electric rail_fast ship" speed="16.67" length="660.99" shape="292.99,175.20 322.32,191.74 350.14,204.62 380.24,217.28 423.61,231.27 450.88,243.99 472.88,257.16 497.41,272.91 516.66,289.74 526.60,298.42 547.84,320.31 554.62,328.01 561.28,337.08 577.12,360.04 589.25,373.76 611.36,395.95 633.67,410.90 654.78,423.46 676.67,434.47 697.55,443.01 719.39,448.74 738.11,451.67 756.99,453.30 778.94,452.78 801.15,450.10 820.70,446.51 840.00,438.59 857.81,430.19">
            <param key="origId" value="168151943 168151944"/>
        </lane>
    </edge>
    <edge id="168151945" from="439978075" to="439978076" name="Lornie Viaduct" priority="13" type="highway.trunk" spreadType="center" shape="437.93,217.29 346.71,166.32 275.67,129.33 206.83,95.85">
        <lane id="168151945_0" index="0" disallow="pedestrian bicycle tram rail_urban rail rail_electric rail_fast ship" speed="19.44" length="194.36" shape="434.49,215.37 346.71,166.32 275.67,129.33 263.34,123.33">
            <param key="origId" value="168151945"/>
        </lane>
    </edge>
    <edge id="168151947" from="175280227" to="439978076" priority="8" type="highway.trunk_link" spreadType="center" shape="434.23,412.80 429.47,355.46 425.65,317.29 423.56,300.97 418.45,271.98 405.35,240.15 392.07,220.35 383.69,209.02 364.19,190.96 341.24,174.77 206.83,95.85">
        <lane id="168151947_0" index="0" disallow="pedestrian bicycle tram rail_urban rail rail_electric rail_fast ship" speed="19.44" length="357.91" shape="435.49,408.69 431.06,355.31 427.24,317.11 425.14,300.73 420.00,271.53 406.77,239.39 393.38,219.43 384.89,207.95 365.20,189.71 342.11,173.42 261.77,126.25">
            <param key="origId" value="168151947"/>
        </lane>
        <lane id="168151947_1" index="1" disallow="pedestrian bicycle tram rail_urban rail rail_electric rail_fast ship" speed="19.44" length="357.91" shape="432.31,408.95 427.88,355.61 424.06,317.47 421.98,301.21 416.90,272.43 403.93,240.91 390.76,221.27 382.49,210.09 363.18,192.21 340.37,176.12 260.15,129.01">
            <param key="origId" value="168151947"/>
        </lane>
    </edge>