<?xml version="1.0" encoding="UTF-8"?>

<!-- generated on 2023-07-17 11:15:59 by Eclipse SUMO netconvert Version 1.17.0
<configuration xmlns:xsi="http://www.w3.org/2001/XMLSchema-instance" xsi:noNamespaceSchemaLocation="http://sumo.dlr.de/xsd/netconvertConfiguration.xsd">

    <input>
        <sumo-net-file value="osm.net.xml.gz"/>
    </input>

    <output>
        <output-file value="osm.net.xml"/>
        <output.street-names value="true"/>
    </output>

    <processing>
        <geometry.min-radius.fix.railways value="false"/>
        <geometry.max-grade.fix value="false"/>
        <offset.disable-normalization value="true"/>
        <lefthand value="1"/>
    </processing>

    <junctions>
        <no-turnarounds value="true"/>
        <junctions.corner-detail value="5"/>
        <junctions.limit-turn-speed value="5.50"/>
        <rectangular-lane-cut value="0"/>
    </junctions>

    <pedestrian>
        <walkingareas value="0"/>
    </pedestrian>

</configuration>
-->

<net version="1.16" junctionCornerDetail="5" lefthand="true" limitTurnSpeed="5.50" xmlns:xsi="http://www.w3.org/2001/XMLSchema-instance" xsi:noNamespaceSchemaLocation="http://sumo.dlr.de/xsd/net_file.xsd">

    <location netOffset="-378103.07,-146450.38" convBoundary="0.00,0.00,572.51,307.01" origBoundary="103.904319,1.324737,103.909464,1.327516" projParameter="+proj=utm +zone=48 +ellps=WGS84 +datum=WGS84 +units=m +no_defs"/>

    <type id="highway.bridleway" priority="1" numLanes="1" speed="2.78" allow="pedestrian" oneway="1" width="2.00"/>
    <type id="highway.bus_guideway" priority="1" numLanes="1" speed="27.78" allow="bus" oneway="1"/>
    <type id="highway.cycleway" priority="1" numLanes="1" speed="5.56" allow="bicycle" oneway="0" width="1.00"/>
    <type id="highway.footway" priority="1" numLanes="1" speed="2.78" allow="pedestrian" oneway="1" width="2.00"/>
    <type id="highway.ford" priority="1" numLanes="1" speed="2.78" allow="army" oneway="0"/>
    <type id="highway.living_street" priority="2" numLanes="1" speed="2.78" disallow="tram rail_urban rail rail_electric rail_fast ship" oneway="0"/>
    <type id="highway.motorway" priority="14" numLanes="2" speed="39.44" allow="private emergency authority army vip passenger hov taxi bus coach delivery truck trailer motorcycle evehicle custom1 custom2" oneway="1"/>
    <type id="highway.motorway_link" priority="9" numLanes="1" speed="22.22" allow="private emergency authority army vip passenger hov taxi bus coach delivery truck trailer motorcycle evehicle custom1 custom2" oneway="1"/>
    <type id="highway.path" priority="1" numLanes="1" speed="5.56" allow="pedestrian bicycle" oneway="0" width="2.00"/>
    <type id="highway.pedestrian" priority="1" numLanes="1" speed="2.78" allow="pedestrian" oneway="1" width="2.00"/>
    <type id="highway.primary" priority="12" numLanes="2" speed="27.78" disallow="tram rail_urban rail rail_electric rail_fast ship" oneway="0"/>
    <type id="highway.primary_link" priority="7" numLanes="1" speed="22.22" disallow="tram rail_urban rail rail_electric rail_fast ship" oneway="0"/>
    <type id="highway.raceway" priority="15" numLanes="2" speed="83.33" allow="vip" oneway="0"/>
    <type id="highway.residential" priority="3" numLanes="1" speed="13.89" disallow="tram rail_urban rail rail_electric rail_fast ship" oneway="0"/>
    <type id="highway.secondary" priority="11" numLanes="1" speed="27.78" disallow="tram rail_urban rail rail_electric rail_fast ship" oneway="0"/>
    <type id="highway.secondary_link" priority="6" numLanes="1" speed="22.22" disallow="tram rail_urban rail rail_electric rail_fast ship" oneway="0"/>
    <type id="highway.service" priority="1" numLanes="1" speed="5.56" allow="pedestrian delivery bicycle" oneway="0"/>
    <type id="highway.stairs" priority="1" numLanes="1" speed="1.39" allow="pedestrian" oneway="1" width="2.00"/>
    <type id="highway.step" priority="1" numLanes="1" speed="1.39" allow="pedestrian" oneway="1" width="2.00"/>
    <type id="highway.steps" priority="1" numLanes="1" speed="1.39" allow="pedestrian" oneway="1" width="2.00"/>
    <type id="highway.tertiary" priority="10" numLanes="1" speed="22.22" disallow="tram rail_urban rail rail_electric rail_fast ship" oneway="0"/>
    <type id="highway.tertiary_link" priority="5" numLanes="1" speed="22.22" disallow="tram rail_urban rail rail_electric rail_fast ship" oneway="0"/>
    <type id="highway.track" priority="1" numLanes="1" speed="5.56" allow="pedestrian motorcycle moped bicycle" oneway="0"/>
    <type id="highway.trunk" priority="13" numLanes="2" speed="27.78" disallow="pedestrian bicycle tram rail_urban rail rail_electric rail_fast ship" oneway="0"/>
    <type id="highway.trunk_link" priority="8" numLanes="1" speed="22.22" disallow="pedestrian bicycle tram rail_urban rail rail_electric rail_fast ship" oneway="0"/>
    <type id="highway.unclassified" priority="4" numLanes="1" speed="13.89" disallow="tram rail_urban rail rail_electric rail_fast ship" oneway="0"/>
    <type id="highway.unsurfaced" priority="1" numLanes="1" speed="8.33" disallow="tram rail_urban rail rail_electric rail_fast ship" oneway="0"/>
    <type id="railway.highspeed" priority="21" numLanes="1" speed="69.44" allow="rail_fast" oneway="1"/>
    <type id="railway.light_rail" priority="19" numLanes="1" speed="27.78" allow="rail_urban" oneway="1"/>
    <type id="railway.preserved" priority="16" numLanes="1" speed="27.78" allow="rail" oneway="1"/>
    <type id="railway.rail" priority="20" numLanes="1" speed="44.44" allow="rail" oneway="1"/>
    <type id="railway.subway" priority="18" numLanes="1" speed="27.78" allow="rail_urban" oneway="1"/>
    <type id="railway.tram" priority="17" numLanes="1" speed="13.89" allow="tram" oneway="1"/>

    <edge id=":1150246954_0" function="internal">
        <lane id=":1150246954_0_0" index="0" disallow="tram rail_urban rail rail_electric rail_fast ship" speed="3.65" length="4.67" shape="373.81,109.87 375.15,109.35 375.72,108.66 375.51,107.79 374.51,106.75"/>
    </edge>
    <edge id=":1726586997_0" function="internal">
        <lane id=":1726586997_0_0" index="0" disallow="pedestrian bicycle tram rail_urban rail rail_electric rail_fast ship" speed="16.67" length="33.12" shape="183.93,196.62 182.67,163.43"/>
        <lane id=":1726586997_0_1" index="1" disallow="pedestrian bicycle tram rail_urban rail rail_electric rail_fast ship" speed="16.67" length="33.12" shape="180.73,196.70 179.47,163.61"/>
        <lane id=":1726586997_0_2" index="2" disallow="pedestrian bicycle tram rail_urban rail rail_electric rail_fast ship" speed="16.67" length="33.12" shape="177.54,196.78 176.28,163.78"/>
    </edge>
    <edge id=":1726586997_3" function="internal">
        <lane id=":1726586997_3_0" index="0" allow="private emergency authority army vip passenger hov taxi bus coach delivery truck trailer motorcycle evehicle custom1 custom2" speed="13.89" length="37.94" shape="170.37,161.84 174.35,169.65 179.24,178.71 184.34,187.64 188.97,195.08"/>
        <lane id=":1726586997_3_1" index="1" allow="private emergency authority army vip passenger hov taxi bus coach delivery truck trailer motorcycle evehicle custom1 custom2" speed="13.89" length="37.94" shape="173.24,160.42 177.19,168.19 182.03,177.14 187.08,185.97 191.68,193.37"/>
    </edge>
    <edge id=":1726587015_0" function="internal">
        <lane id=":1726587015_0_0" index="0" allow="private emergency authority army vip passenger hov taxi bus coach delivery truck trailer motorcycle evehicle custom1 custom2" speed="13.89" length="18.87" shape="158.92,139.46 156.27,134.85 152.88,132.80 148.95,131.05 144.68,127.31"/>
        <lane id=":1726587015_0_1" index="1" allow="private emergency authority army vip passenger hov taxi bus coach delivery truck trailer motorcycle evehicle custom1 custom2" speed="13.89" length="18.87" shape="155.97,140.76 153.41,136.36 150.11,134.47 146.29,132.86 142.18,129.30"/>
    </edge>
    <edge id=":1726587015_2" function="internal">
        <lane id=":1726587015_2_0" index="0" disallow="pedestrian bicycle tram rail_urban rail rail_electric rail_fast ship" speed="16.67" length="20.64" shape="149.48,125.27 148.67,131.56 145.84,135.88 143.54,140.04 144.35,145.87"/>
        <lane id=":1726587015_2_1" index="1" disallow="pedestrian bicycle tram rail_urban rail rail_electric rail_fast ship" speed="16.67" length="20.64" shape="152.65,124.85 151.80,130.89 148.93,135.01 146.57,138.98 147.28,144.58"/>
        <lane id=":1726587015_2_2" index="2" disallow="pedestrian bicycle tram rail_urban rail rail_electric rail_fast ship" speed="16.67" length="20.64" shape="155.82,124.43 154.94,130.22 152.02,134.14 149.59,137.92 150.20,143.30"/>
        <lane id=":1726587015_2_3" index="3" disallow="pedestrian bicycle tram rail_urban rail rail_electric rail_fast ship" speed="16.67" length="20.64" shape="155.82,124.43 155.40,129.75 153.58,133.47 152.21,137.07 153.13,142.01"/>
    </edge>
    <edge id=":1726587024_0" function="internal">
        <lane id=":1726587024_0_0" index="0" allow="private emergency authority army vip passenger hov taxi bus coach delivery truck trailer motorcycle evehicle custom1 custom2" speed="13.89" length="3.07" shape="83.16,199.95 80.44,199.46"/>
        <lane id=":1726587024_0_1" index="1" allow="private emergency authority army vip passenger hov taxi bus coach delivery truck trailer motorcycle evehicle custom1 custom2" speed="13.89" length="3.07" shape="83.68,196.79 80.65,196.27"/>
        <lane id=":1726587024_0_2" index="2" allow="private emergency authority army vip passenger hov taxi bus coach delivery truck trailer motorcycle evehicle custom1 custom2" speed="13.89" length="3.07" shape="84.21,193.64 80.87,193.07"/>
    </edge>
    <edge id=":230865987_0" function="internal">
        <lane id=":230865987_0_0" index="0" disallow="pedestrian bicycle tram rail_urban rail rail_electric rail_fast ship" speed="16.67" length="8.15" shape="184.60,257.86 185.03,255.45 185.69,253.86 186.32,252.26 186.68,249.85"/>
        <lane id=":230865987_0_1" index="1" disallow="pedestrian bicycle tram rail_urban rail rail_electric rail_fast ship" speed="16.67" length="8.15" shape="181.41,257.62 181.84,255.24 182.49,253.67 183.12,252.09 183.48,249.71"/>
        <lane id=":230865987_0_2" index="2" disallow="pedestrian bicycle tram rail_urban rail rail_electric rail_fast ship" speed="16.67" length="8.15" shape="178.22,257.39 178.64,255.03 179.30,253.48 179.93,251.93 180.28,249.57"/>
        <lane id=":230865987_0_3" index="3" disallow="pedestrian bicycle tram rail_urban rail rail_electric rail_fast ship" speed="16.67" length="8.15" shape="175.03,257.15 175.45,254.83 176.10,253.29 176.73,251.76 177.09,249.43"/>
        <lane id=":230865987_0_4" index="4" disallow="pedestrian bicycle tram rail_urban rail rail_electric rail_fast ship" speed="16.67" length="8.15" shape="175.03,257.15 174.95,254.81 174.50,253.22 174.04,251.63 173.89,249.29"/>
    </edge>
    <edge id=":2325417241_0" function="internal">
        <lane id=":2325417241_0_0" index="0" allow="private emergency authority army vip passenger hov taxi bus coach delivery truck trailer motorcycle evehicle custom1 custom2" speed="13.89" length="24.14" shape="188.34,141.89 182.01,146.36 177.83,149.72 174.39,153.77 170.33,160.30"/>
        <lane id=":2325417241_0_1" index="1" allow="private emergency authority army vip passenger hov taxi bus coach delivery truck trailer motorcycle evehicle custom1 custom2" speed="13.89" length="24.14" shape="190.10,144.57 184.23,148.68 180.33,151.75 177.12,155.46 173.34,161.48"/>
        <lane id=":2325417241_0_2" index="2" allow="private emergency authority army vip passenger hov taxi bus coach delivery truck trailer motorcycle evehicle custom1 custom2" speed="13.89" length="24.14" shape="191.86,147.24 186.45,151.00 182.83,153.79 179.84,157.15 176.36,162.66"/>
    </edge>
    <edge id=":2325417241_3" function="internal">
        <lane id=":2325417241_3_0" index="0" disallow="pedestrian bicycle tram rail_urban rail rail_electric rail_fast ship" speed="16.67" length="17.00" shape="182.66,163.23 182.92,145.93"/>
        <lane id=":2325417241_3_1" index="1" disallow="pedestrian bicycle tram rail_urban rail rail_electric rail_fast ship" speed="16.67" length="17.00" shape="179.46,163.41 179.75,146.33"/>
        <lane id=":2325417241_3_2" index="2" disallow="pedestrian bicycle tram rail_urban rail rail_electric rail_fast ship" speed="16.67" length="17.00" shape="176.27,163.58 176.57,146.72"/>
        <lane id=":2325417241_3_3" index="3" disallow="pedestrian bicycle tram rail_urban rail rail_electric rail_fast ship" speed="16.67" length="17.00" shape="176.27,163.58 175.77,158.65 175.05,155.33 174.22,152.01 173.40,147.11"/>
    </edge>
    <edge id=":4090051076_0" function="internal">
        <lane id=":4090051076_0_0" index="0" allow="private emergency authority army vip passenger hov taxi bus coach delivery truck trailer motorcycle evehicle custom1 custom2" speed="13.89" length="22.04" shape="148.85,178.99 154.25,174.64 157.94,171.61 161.27,168.24 165.59,162.86"/>
        <lane id=":4090051076_0_1" index="1" allow="private emergency authority army vip passenger hov taxi bus coach delivery truck trailer motorcycle evehicle custom1 custom2" speed="13.89" length="22.04" shape="146.81,176.53 151.92,172.43 155.43,169.61 158.60,166.45 162.69,161.38"/>
        <lane id=":4090051076_0_2" index="2" allow="private emergency authority army vip passenger hov taxi bus coach delivery truck trailer motorcycle evehicle custom1 custom2" speed="13.89" length="22.04" shape="144.76,174.07 149.58,170.23 152.91,167.60 155.93,164.67 159.79,159.91"/>
    </edge>
    <edge id=":4090051076_3" function="internal">
        <lane id=":4090051076_3_0" index="0" disallow="pedestrian bicycle tram rail_urban rail rail_electric rail_fast ship" speed="16.67" length="19.57" shape="149.07,156.60 151.32,161.41 152.83,164.77 153.78,168.26 154.31,173.48"/>
        <lane id=":4090051076_3_1" index="1" disallow="pedestrian bicycle tram rail_urban rail rail_electric rail_fast ship" speed="16.67" length="19.57" shape="152.00,155.31 154.38,160.43 155.97,164.01 156.95,167.73 157.51,173.29"/>
        <lane id=":4090051076_3_2" index="2" disallow="pedestrian bicycle tram rail_urban rail rail_electric rail_fast ship" speed="16.67" length="19.57" shape="154.93,154.03 157.44,159.46 159.10,163.26 160.12,167.21 160.70,173.11"/>
        <lane id=":4090051076_3_3" index="3" disallow="pedestrian bicycle tram rail_urban rail rail_electric rail_fast ship" speed="16.67" length="19.57" shape="157.86,152.74 160.50,158.48 162.24,162.50 163.29,166.69 163.89,172.92"/>
    </edge>
    <edge id=":4675560724_0" function="internal">
        <lane id=":4675560724_0_0" index="0" disallow="pedestrian bicycle tram rail_urban rail rail_electric rail_fast ship" speed="16.67" length="4.35" shape="187.33,204.50 184.06,201.59"/>
        <lane id=":4675560724_0_1" index="1" disallow="pedestrian bicycle tram rail_urban rail rail_electric rail_fast ship" speed="16.67" length="4.35" shape="184.13,204.56 180.86,201.68"/>
        <lane id=":4675560724_0_2" index="2" disallow="pedestrian bicycle tram rail_urban rail rail_electric rail_fast ship" speed="16.67" length="4.35" shape="180.93,204.63 177.66,201.78"/>
    </edge>
    <edge id=":4675560724_3" function="internal">
        <lane id=":4675560724_3_0" index="0" allow="private emergency authority army vip passenger hov taxi bus coach delivery truck trailer motorcycle evehicle custom1 custom2" speed="15.28" length="5.28" shape="177.73,204.69 182.04,201.65"/>
        <lane id=":4675560724_3_1" index="1" allow="private emergency authority army vip passenger hov taxi bus coach delivery truck trailer motorcycle evehicle custom1 custom2" speed="15.28" length="5.20" shape="174.53,204.75 178.77,201.75"/>
    </edge>
    <edge id=":4675560726_0" function="internal">
        <lane id=":4675560726_0_0" index="0" disallow="pedestrian bicycle tram rail_urban rail rail_electric rail_fast ship" speed="16.67" length="4.36" shape="145.20,117.41 148.77,119.95"/>
        <lane id=":4675560726_0_1" index="1" disallow="pedestrian bicycle tram rail_urban rail rail_electric rail_fast ship" speed="16.67" length="4.36" shape="148.38,116.99 151.94,119.49"/>
        <lane id=":4675560726_0_2" index="2" disallow="pedestrian bicycle tram rail_urban rail rail_electric rail_fast ship" speed="16.67" length="4.36" shape="151.55,116.56 155.11,119.04"/>
    </edge>
    <edge id=":4675560726_3" function="internal">
        <lane id=":4675560726_3_0" index="0" allow="private emergency authority army vip passenger hov taxi bus coach delivery truck trailer motorcycle evehicle custom1 custom2" speed="15.28" length="5.16" shape="154.72,116.14 150.93,119.64"/>
        <lane id=":4675560726_3_1" index="1" allow="private emergency authority army vip passenger hov taxi bus coach delivery truck trailer motorcycle evehicle custom1 custom2" speed="15.28" length="5.05" shape="157.89,115.72 154.20,119.17"/>
    </edge>
    <edge id=":4675560730_0" function="internal">
        <lane id=":4675560730_0_0" index="0" disallow="pedestrian bicycle tram rail_urban rail rail_electric rail_fast ship" speed="16.67" length="29.02" shape="182.90,145.73 179.33,116.93"/>
        <lane id=":4675560730_0_1" index="1" disallow="pedestrian bicycle tram rail_urban rail rail_electric rail_fast ship" speed="16.67" length="29.02" shape="179.72,146.13 176.15,117.33"/>
        <lane id=":4675560730_0_2" index="2" disallow="pedestrian bicycle tram rail_urban rail rail_electric rail_fast ship" speed="16.67" length="29.02" shape="176.55,146.52 172.98,117.73"/>
        <lane id=":4675560730_0_3" index="3" disallow="pedestrian bicycle tram rail_urban rail rail_electric rail_fast ship" speed="16.67" length="29.02" shape="173.37,146.91 169.80,118.13"/>
    </edge>
    <edge id=":4675560730_4" function="internal">
        <lane id=":4675560730_4_0" index="0" allow="private emergency authority army vip passenger hov taxi bus coach delivery truck trailer motorcycle evehicle custom1 custom2" speed="15.28" length="35.19" shape="169.90,152.68 172.62,143.50 175.14,136.20 176.60,128.31 176.15,117.33"/>
        <lane id=":4675560730_4_1" index="1" allow="private emergency authority army vip passenger hov taxi bus coach delivery truck trailer motorcycle evehicle custom1 custom2" speed="15.28" length="35.19" shape="166.78,151.96 169.48,142.87 171.96,135.83 173.40,128.30 172.98,117.73"/>
        <lane id=":4675560730_4_2" index="2" allow="private emergency authority army vip passenger hov taxi bus coach delivery truck trailer motorcycle evehicle custom1 custom2" speed="15.28" length="35.19" shape="163.67,151.24 166.35,142.25 168.79,135.47 170.21,128.29 169.80,118.13"/>
    </edge>
    <edge id=":4675560733_0" function="internal">
        <lane id=":4675560733_0_0" index="0" allow="private emergency authority army vip passenger hov taxi bus coach delivery truck trailer motorcycle evehicle custom1 custom2" speed="15.28" length="33.04" shape="167.31,167.77 164.00,176.56 161.15,183.20 159.33,190.32 159.09,200.54"/>
        <lane id=":4675560733_0_1" index="1" allow="private emergency authority army vip passenger hov taxi bus coach delivery truck trailer motorcycle evehicle custom1 custom2" speed="15.28" length="33.04" shape="170.36,168.73 167.08,177.42 164.29,183.80 162.51,190.55 162.29,200.35"/>
        <lane id=":4675560733_0_2" index="2" allow="private emergency authority army vip passenger hov taxi bus coach delivery truck trailer motorcycle evehicle custom1 custom2" speed="15.28" length="33.04" shape="173.41,169.68 170.16,178.27 167.42,184.40 165.70,190.78 165.48,200.17"/>
    </edge>
    <edge id=":4675560733_3" function="internal">
        <lane id=":4675560733_3_0" index="0" disallow="pedestrian bicycle tram rail_urban rail rail_electric rail_fast ship" speed="16.67" length="27.09" shape="154.32,173.68 155.90,200.73"/>
        <lane id=":4675560733_3_1" index="1" disallow="pedestrian bicycle tram rail_urban rail rail_electric rail_fast ship" speed="16.67" length="27.09" shape="157.52,173.49 159.09,200.54"/>
        <lane id=":4675560733_3_2" index="2" disallow="pedestrian bicycle tram rail_urban rail rail_electric rail_fast ship" speed="16.67" length="27.09" shape="160.71,173.31 162.29,200.35"/>
        <lane id=":4675560733_3_3" index="3" disallow="pedestrian bicycle tram rail_urban rail rail_electric rail_fast ship" speed="16.67" length="27.09" shape="163.91,173.12 165.48,200.17"/>
    </edge>
    <edge id=":570016324_0" function="internal">
        <lane id=":570016324_0_0" index="0" allow="private emergency authority army vip passenger hov taxi bus coach delivery truck trailer motorcycle evehicle custom1 custom2" speed="13.89" length="24.44" shape="282.16,129.12 275.60,125.40 270.48,123.38 265.69,121.60 260.15,118.60"/>
        <lane id=":570016324_0_1" index="1" allow="private emergency authority army vip passenger hov taxi bus coach delivery truck trailer motorcycle evehicle custom1 custom2" speed="13.89" length="24.44" shape="280.40,131.79 273.85,128.08 268.73,126.06 263.95,124.28 258.40,121.28"/>
    </edge>
    <edge id=":570016324_2" function="internal">
        <lane id=":570016324_2_0" index="0" allow="private emergency authority army vip passenger hov taxi bus coach delivery truck trailer motorcycle evehicle custom1 custom2" speed="13.89" length="24.85" shape="280.40,131.79 274.09,128.26 269.25,126.94 264.06,126.55 256.69,125.80"/>
        <lane id=":570016324_2_1" index="1" allow="private emergency authority army vip passenger hov taxi bus coach delivery truck trailer motorcycle evehicle custom1 custom2" speed="13.89" length="23.46" shape="278.63,134.46 272.67,131.15 268.10,129.96 263.18,129.64 256.22,128.97"/>
        <lane id=":570016324_2_2" index="2" allow="private emergency authority army vip passenger hov taxi bus coach delivery truck trailer motorcycle evehicle custom1 custom2" speed="13.89" length="22.07" shape="276.87,137.13 271.26,134.05 266.94,132.98 262.31,132.74 255.75,132.13"/>
    </edge>
    <edge id=":570016449_0" function="internal">
        <lane id=":570016449_0_0" index="0" allow="private emergency authority army vip passenger hov taxi bus coach delivery truck trailer motorcycle evehicle custom1 custom2" speed="13.89" length="18.01" shape="70.56,74.37 65.53,75.71 62.05,76.69 58.54,77.16 53.40,76.97"/>
        <lane id=":570016449_0_1" index="1" allow="private emergency authority army vip passenger hov taxi bus coach delivery truck trailer motorcycle evehicle custom1 custom2" speed="13.89" length="18.01" shape="71.28,77.49 65.95,78.89 62.27,79.90 58.55,80.38 53.11,80.15"/>
    </edge>
    <edge id=":570016449_2" function="internal">
        <lane id=":570016449_2_0" index="0" allow="private emergency authority army vip passenger hov taxi bus coach delivery truck trailer motorcycle evehicle custom1 custom2" speed="13.89" length="18.19" shape="71.33,82.32 65.98,81.32 62.28,80.85 58.55,80.58 53.11,80.15"/>
        <lane id=":570016449_2_1" index="1" allow="private emergency authority army vip passenger hov taxi bus coach delivery truck trailer motorcycle evehicle custom1 custom2" speed="13.89" length="18.19" shape="70.69,85.45 65.44,84.47 61.81,84.02 58.16,83.76 52.83,83.34"/>
    </edge>
    <edge id=":570016587_0" function="internal">
        <lane id=":570016587_0_0" index="0" allow="private emergency authority army vip passenger hov taxi bus coach delivery truck trailer motorcycle evehicle custom1 custom2" speed="13.89" length="25.40" shape="60.09,196.97 67.04,200.69 72.46,202.78 77.43,204.64 83.06,207.65"/>
        <lane id=":570016587_0_1" index="1" allow="private emergency authority army vip passenger hov taxi bus coach delivery truck trailer motorcycle evehicle custom1 custom2" speed="13.89" length="25.40" shape="61.77,194.24 68.73,197.97 74.15,200.07 79.13,201.92 84.76,204.94"/>
    </edge>
    <edge id=":570016587_2" function="internal">
        <lane id=":570016587_2_0" index="0" allow="private emergency authority army vip passenger hov taxi bus coach delivery truck trailer motorcycle evehicle custom1 custom2" speed="13.89" length="22.22" shape="61.77,194.24 67.49,197.31 71.80,198.57 76.40,199.08 82.96,199.92"/>
        <lane id=":570016587_2_1" index="1" allow="private emergency authority army vip passenger hov taxi bus coach delivery truck trailer motorcycle evehicle custom1 custom2" speed="13.89" length="20.97" shape="63.46,191.52 68.86,194.40 72.94,195.55 77.28,195.99 83.48,196.76"/>
        <lane id=":570016587_2_2" index="2" allow="private emergency authority army vip passenger hov taxi bus coach delivery truck trailer motorcycle evehicle custom1 custom2" speed="13.89" length="19.73" shape="65.14,188.80 70.23,191.49 74.08,192.53 78.17,192.90 84.01,193.60"/>
    </edge>
    <edge id=":570016607_0" function="internal">
        <lane id=":570016607_0_0" index="0" allow="private emergency authority army vip passenger hov taxi bus coach delivery truck trailer motorcycle evehicle custom1 custom2" speed="13.89" length="30.73" shape="256.15,248.56 263.68,247.68 271.40,247.38 279.14,247.41 286.75,247.53"/>
        <lane id=":570016607_0_1" index="1" allow="private emergency authority army vip passenger hov taxi bus coach delivery truck trailer motorcycle evehicle custom1 custom2" speed="13.89" length="30.73" shape="256.04,245.33 263.60,244.46 271.36,244.17 279.14,244.21 286.78,244.33"/>
    </edge>
    <edge id=":570016607_2" function="internal">
        <lane id=":570016607_2_0" index="0" allow="private emergency authority army vip passenger hov taxi bus coach delivery truck trailer motorcycle evehicle custom1 custom2" speed="13.89" length="30.72" shape="256.33,241.76 263.81,243.48 271.46,245.35 279.16,246.86 286.75,247.53"/>
        <lane id=":570016607_2_1" index="1" allow="private emergency authority army vip passenger hov taxi bus coach delivery truck trailer motorcycle evehicle custom1 custom2" speed="13.89" length="30.72" shape="256.96,238.62 264.35,240.33 271.80,242.18 279.28,243.67 286.78,244.33"/>
    </edge>
    <edge id=":5898806690_0" function="internal">
        <lane id=":5898806690_0_0" index="0" disallow="tram rail_urban rail rail_electric rail_fast ship" speed="3.65" length="4.67" shape="194.84,65.73 193.49,66.24 192.92,66.93 193.13,67.80 194.12,68.85"/>
    </edge>
    <edge id=":cluster_4675560728_4675560729_4675560731_4675560732_0" function="internal">
        <lane id=":cluster_4675560728_4675560729_4675560731_4675560732_0_0" index="0" allow="private emergency authority army vip passenger hov taxi bus coach delivery truck trailer motorcycle evehicle custom1 custom2" speed="5.18" length="0.49" shape="170.23,160.47 170.72,160.43"/>
    </edge>
    <edge id=":cluster_4675560728_4675560729_4675560731_4675560732_1" function="internal">
        <lane id=":cluster_4675560728_4675560729_4675560731_4675560732_1_0" index="0" allow="private emergency authority army vip passenger hov taxi bus coach delivery truck trailer motorcycle evehicle custom1 custom2" speed="5.33" length="8.89" shape="170.23,160.47 168.85,162.08 167.50,162.11 166.17,160.56 164.87,157.44"/>
    </edge>
    <edge id=":cluster_4675560728_4675560729_4675560731_4675560732_2" function="internal">
        <lane id=":cluster_4675560728_4675560729_4675560731_4675560732_2_0" index="0" allow="private emergency authority army vip passenger hov taxi bus coach delivery truck trailer motorcycle evehicle custom1 custom2" speed="13.89" length="7.58" shape="170.23,160.47 169.13,162.47 168.50,163.90 168.02,165.39 167.37,167.58"/>
        <lane id=":cluster_4675560728_4675560729_4675560731_4675560732_2_1" index="1" allow="private emergency authority army vip passenger hov taxi bus coach delivery truck trailer motorcycle evehicle custom1 custom2" speed="13.89" length="7.58" shape="173.24,161.65 172.17,163.59 171.55,164.97 171.07,166.41 170.42,168.53"/>
    </edge>
    <edge id=":cluster_4675560728_4675560729_4675560731_4675560732_4" function="internal">
        <lane id=":cluster_4675560728_4675560729_4675560731_4675560732_4_0" index="0" allow="private emergency authority army vip passenger hov taxi bus coach delivery truck trailer motorcycle evehicle custom1 custom2" speed="7.57" length="21.66" shape="176.26,162.83 177.37,155.24 175.64,150.81 171.05,149.54 166.72,150.65"/>
    </edge>
    <edge id=":cluster_4675560728_4675560729_4675560731_4675560732_5" function="internal">
        <lane id=":cluster_4675560728_4675560729_4675560731_4675560732_5_0" index="0" allow="private emergency authority army vip passenger hov taxi bus coach delivery truck trailer motorcycle evehicle custom1 custom2" speed="13.89" length="7.24" shape="176.26,162.83 175.21,164.70 174.59,166.04 174.11,167.43 173.47,169.49"/>
    </edge>
    <edge id=":cluster_4675560728_4675560729_4675560731_4675560732_22" function="internal">
        <lane id=":cluster_4675560728_4675560729_4675560731_4675560732_22_0" index="0" allow="private emergency authority army vip passenger hov taxi bus coach delivery truck trailer motorcycle evehicle custom1 custom2" speed="5.18" length="2.44" shape="170.72,160.43 173.15,160.24"/>
    </edge>
    <edge id=":cluster_4675560728_4675560729_4675560731_4675560732_23" function="internal">
        <lane id=":cluster_4675560728_4675560729_4675560731_4675560732_23_0" index="0" allow="private emergency authority army vip passenger hov taxi bus coach delivery truck trailer motorcycle evehicle custom1 custom2" speed="7.57" length="3.19" shape="166.72,150.65 163.62,151.43"/>
    </edge>
    <edge id=":cluster_4675560728_4675560729_4675560731_4675560732_6" function="internal">