<?xml version="1.0" encoding="UTF-8"?>

<!-- generated on 2023-07-17 11:04:36 by Eclipse SUMO netconvert Version 1.17.0
<configuration xmlns:xsi="http://www.w3.org/2001/XMLSchema-instance" xsi:noNamespaceSchemaLocation="http://sumo.dlr.de/xsd/netconvertConfiguration.xsd">

    <input>
        <sumo-net-file value="osm.net.xml.gz"/>
    </input>

    <output>
        <output-file value="osm.net.xml"/>
        <output.street-names value="true"/>
    </output>

    <processing>
        <geometry.min-radius.fix.railways value="false"/>
        <geometry.max-grade.fix value="false"/>
        <offset.disable-normalization value="true"/>
        <lefthand value="1"/>
    </processing>

    <junctions>
        <no-turnarounds value="true"/>
        <junctions.corner-detail value="5"/>
        <junctions.limit-turn-speed value="5.50"/>
        <rectangular-lane-cut value="0"/>
    </junctions>

    <pedestrian>
        <walkingareas value="0"/>
    </pedestrian>

</configuration>
-->

<net version="1.16" junctionCornerDetail="5" lefthand="true" limitTurnSpeed="5.50" xmlns:xsi="http://www.w3.org/2001/XMLSchema-instance" xsi:noNamespaceSchemaLocation="http://sumo.dlr.de/xsd/net_file.xsd">

    <location netOffset="-375330.01,-143101.61" convBoundary="0.00,0.00,1855.44,387.14" origBoundary="103.879409,1.294436,103.896085,1.297938" projParameter="+proj=utm +zone=48 +ellps=WGS84 +datum=WGS84 +units=m +no_defs"/>

    <type id="highway.bridleway" priority="1" numLanes="1" speed="2.78" allow="pedestrian" oneway="1" width="2.00"/>
    <type id="highway.bus_guideway" priority="1" numLanes="1" speed="27.78" allow="bus" oneway="1"/>
    <type id="highway.cycleway" priority="1" numLanes="1" speed="5.56" allow="bicycle" oneway="0" width="1.00"/>
    <type id="highway.footway" priority="1" numLanes="1" speed="2.78" allow="pedestrian" oneway="1" width="2.00"/>
    <type id="highway.ford" priority="1" numLanes="1" speed="2.78" allow="army" oneway="0"/>
    <type id="highway.living_street" priority="2" numLanes="1" speed="2.78" disallow="tram rail_urban rail rail_electric rail_fast ship" oneway="0"/>
    <type id="highway.motorway" priority="14" numLanes="2" speed="39.44" allow="private emergency authority army vip passenger hov taxi bus coach delivery truck trailer motorcycle evehicle custom1 custom2" oneway="1"/>
    <type id="highway.motorway_link" priority="9" numLanes="1" speed="22.22" allow="private emergency authority army vip passenger hov taxi bus coach delivery truck trailer motorcycle evehicle custom1 custom2" oneway="1"/>
    <type id="highway.path" priority="1" numLanes="1" speed="5.56" allow="pedestrian bicycle" oneway="0" width="2.00"/>
    <type id="highway.pedestrian" priority="1" numLanes="1" speed="2.78" allow="pedestrian" oneway="1" width="2.00"/>
    <type id="highway.primary" priority="12" numLanes="2" speed="27.78" disallow="tram rail_urban rail rail_electric rail_fast ship" oneway="0"/>
    <type id="highway.primary_link" priority="7" numLanes="1" speed="22.22" disallow="tram rail_urban rail rail_electric rail_fast ship" oneway="0"/>
    <type id="highway.raceway" priority="15" numLanes="2" speed="83.33" allow="vip" oneway="0"/>
    <type id="highway.residential" priority="3" numLanes="1" speed="13.89" disallow="tram rail_urban rail rail_electric rail_fast ship" oneway="0"/>
    <type id="highway.secondary" priority="11" numLanes="1" speed="27.78" disallow="tram rail_urban rail rail_electric rail_fast ship" oneway="0"/>
    <type id="highway.secondary_link" priority="6" numLanes="1" speed="22.22" disallow="tram rail_urban rail rail_electric rail_fast ship" oneway="0"/>
    <type id="highway.service" priority="1" numLanes="1" speed="5.56" allow="pedestrian delivery bicycle" oneway="0"/>
    <type id="highway.stairs" priority="1" numLanes="1" speed="1.39" allow="pedestrian" oneway="1" width="2.00"/>
    <type id="highway.step" priority="1" numLanes="1" speed="1.39" allow="pedestrian" oneway="1" width="2.00"/>
    <type id="highway.steps" priority="1" numLanes="1" speed="1.39" allow="pedestrian" oneway="1" width="2.00"/>
    <type id="highway.tertiary" priority="10" numLanes="1" speed="22.22" disallow="tram rail_urban rail rail_electric rail_fast ship" oneway="0"/>
    <type id="highway.tertiary_link" priority="5" numLanes="1" speed="22.22" disallow="tram rail_urban rail rail_electric rail_fast ship" oneway="0"/>
    <type id="highway.track" priority="1" numLanes="1" speed="5.56" allow="pedestrian motorcycle moped bicycle" oneway="0"/>
    <type id="highway.trunk" priority="13" numLanes="2" speed="27.78" disallow="pedestrian bicycle tram rail_urban rail rail_electric rail_fast ship" oneway="0"/>
    <type id="highway.trunk_link" priority="8" numLanes="1" speed="22.22" disallow="pedestrian bicycle tram rail_urban rail rail_electric rail_fast ship" oneway="0"/>
    <type id="highway.unclassified" priority="4" numLanes="1" speed="13.89" disallow="tram rail_urban rail rail_electric rail_fast ship" oneway="0"/>
    <type id="highway.unsurfaced" priority="1" numLanes="1" speed="8.33" disallow="tram rail_urban rail rail_electric rail_fast ship" oneway="0"/>
    <type id="railway.highspeed" priority="21" numLanes="1" speed="69.44" allow="rail_fast" oneway="1"/>
    <type id="railway.light_rail" priority="19" numLanes="1" speed="27.78" allow="rail_urban" oneway="1"/>
    <type id="railway.preserved" priority="16" numLanes="1" speed="27.78" allow="rail" oneway="1"/>
    <type id="railway.rail" priority="20" numLanes="1" speed="44.44" allow="rail" oneway="1"/>
    <type id="railway.subway" priority="18" numLanes="1" speed="27.78" allow="rail_urban" oneway="1"/>
    <type id="railway.tram" priority="17" numLanes="1" speed="13.89" allow="tram" oneway="1"/>

    <edge id=":1366314944_0" function="internal">
        <lane id=":1366314944_0_0" index="0" allow="private emergency authority army vip passenger hov taxi bus coach delivery truck trailer motorcycle evehicle custom1 custom2" speed="13.89" length="45.79" shape="544.72,178.95 590.23,183.93"/>
        <lane id=":1366314944_0_1" index="1" allow="private emergency authority army vip passenger hov taxi bus coach delivery truck trailer motorcycle evehicle custom1 custom2" speed="13.89" length="46.29" shape="544.81,175.75 590.83,180.75"/>
    </edge>
    <edge id=":1366314944_2" function="internal">
        <lane id=":1366314944_2_0" index="0" allow="private emergency authority army vip passenger hov taxi bus coach delivery truck trailer motorcycle evehicle custom1 custom2" speed="13.89" length="48.60" shape="544.81,175.75 557.34,176.31 571.01,176.97 583.71,177.21 593.33,176.50"/>
        <lane id=":1366314944_2_1" index="1" allow="private emergency authority army vip passenger hov taxi bus coach delivery truck trailer motorcycle evehicle custom1 custom2" speed="13.89" length="48.60" shape="544.91,172.55 557.44,173.10 571.13,173.73 583.85,173.94 593.48,173.22"/>
    </edge>
    <edge id=":1539812446_0" function="internal">
        <lane id=":1539812446_0_0" index="0" allow="private emergency authority army vip passenger hov taxi bus coach delivery truck trailer motorcycle evehicle custom1 custom2" speed="15.28" length="12.48" shape="673.60,237.47 673.72,233.64 674.25,230.88 675.10,228.39 676.18,225.37"/>
    </edge>
    <edge id=":1539812446_1" function="internal">
        <lane id=":1539812446_1_0" index="0" disallow="tram rail_urban rail rail_electric rail_fast ship" speed="16.67" length="12.95" shape="670.40,237.54 670.67,233.78 671.42,231.24 672.19,228.71 672.54,224.94"/>
        <lane id=":1539812446_1_1" index="1" disallow="tram rail_urban rail rail_electric rail_fast ship" speed="16.67" length="12.95" shape="667.20,237.62 667.47,233.83 668.22,231.28 668.99,228.74 669.34,224.95"/>
        <lane id=":1539812446_1_2" index="2" disallow="tram rail_urban rail rail_electric rail_fast ship" speed="16.67" length="12.95" shape="664.01,237.70 664.28,233.89 665.02,231.32 665.79,228.76 666.14,224.95"/>
        <lane id=":1539812446_1_3" index="3" disallow="tram rail_urban rail rail_electric rail_fast ship" speed="16.67" length="12.95" shape="660.81,237.77 661.08,233.94 661.82,231.36 662.59,228.78 662.94,224.95"/>
    </edge>
    <edge id=":1539812451_0" function="internal">
        <lane id=":1539812451_0_0" index="0" allow="private emergency authority army vip passenger hov taxi bus coach delivery truck trailer motorcycle evehicle custom1 custom2" speed="15.28" length="16.94" shape="648.76,58.02 648.43,63.45 647.42,67.55 646.07,70.96 644.73,74.32"/>
    </edge>
    <edge id=":1539812451_1" function="internal">
        <lane id=":1539812451_1_0" index="0" disallow="tram rail_urban rail rail_electric rail_fast ship" speed="16.67" length="16.97" shape="648.76,58.02 649.25,75.01"/>
        <lane id=":1539812451_1_1" index="1" disallow="tram rail_urban rail rail_electric rail_fast ship" speed="16.67" length="16.97" shape="651.96,57.96 652.45,74.93"/>
        <lane id=":1539812451_1_2" index="2" disallow="tram rail_urban rail rail_electric rail_fast ship" speed="16.67" length="16.97" shape="655.15,57.89 655.65,74.85"/>
        <lane id=":1539812451_1_3" index="3" disallow="tram rail_urban rail rail_electric rail_fast ship" speed="16.67" length="16.97" shape="658.35,57.82 658.84,74.76"/>
    </edge>
    <edge id=":1539812456_0" function="internal">
        <lane id=":1539812456_0_0" index="0" allow="private emergency authority army vip passenger hov taxi bus coach delivery truck trailer motorcycle evehicle custom1 custom2" speed="19.45" length="2.84" shape="1128.94,154.29 1131.78,154.18"/>
    </edge>
    <edge id=":1539812456_1" function="internal">
        <lane id=":1539812456_1_0" index="0" allow="private emergency authority army vip passenger hov taxi bus coach delivery truck trailer motorcycle evehicle custom1 custom2" speed="25.00" length="3.00" shape="1128.81,151.07 1131.72,150.98"/>
        <lane id=":1539812456_1_1" index="1" allow="private emergency authority army vip passenger hov taxi bus coach delivery truck trailer motorcycle evehicle custom1 custom2" speed="25.00" length="3.00" shape="1128.68,147.87 1131.65,147.78"/>
        <lane id=":1539812456_1_2" index="2" allow="private emergency authority army vip passenger hov taxi bus coach delivery truck trailer motorcycle evehicle custom1 custom2" speed="25.00" length="3.00" shape="1128.56,144.67 1131.59,144.58"/>
        <lane id=":1539812456_1_3" index="3" allow="private emergency authority army vip passenger hov taxi bus coach delivery truck trailer motorcycle evehicle custom1 custom2" speed="25.00" length="3.00" shape="1128.43,141.47 1131.53,141.38"/>
    </edge>
    <edge id=":1539812529_0" function="internal">
        <lane id=":1539812529_0_0" index="0" allow="private emergency authority army vip passenger hov taxi bus coach delivery truck trailer motorcycle evehicle custom1 custom2" speed="13.89" length="23.65" shape="758.17,185.56 781.76,183.88"/>
    </edge>
    <edge id=":1539812529_1" function="internal">
        <lane id=":1539812529_1_0" index="0" allow="private emergency authority army vip passenger hov taxi bus coach delivery truck trailer motorcycle evehicle custom1 custom2" speed="13.89" length="23.64" shape="758.20,182.14 763.28,182.65 769.98,183.34 776.67,183.86 781.76,183.88"/>
    </edge>
    <edge id=":1539812590_0" function="internal">
        <lane id=":1539812590_0_0" index="0" allow="private emergency authority army vip passenger hov taxi bus coach delivery truck trailer motorcycle evehicle custom1 custom2" speed="13.89" length="8.49" shape="788.60,120.59 786.13,120.07 784.58,118.97 783.04,117.90 780.57,117.45"/>
        <lane id=":1539812590_0_1" index="1" allow="private emergency authority army vip passenger hov taxi bus coach delivery truck trailer motorcycle evehicle custom1 custom2" speed="13.89" length="8.49" shape="788.60,120.59 780.64,120.65"/>
        <lane id=":1539812590_0_2" index="2" allow="private emergency authority army vip passenger hov taxi bus coach delivery truck trailer motorcycle evehicle custom1 custom2" speed="13.89" length="8.49" shape="788.60,120.59 786.17,121.07 784.66,122.17 783.15,123.29 780.72,123.85"/>
    </edge>
    <edge id=":1539812608_0" function="internal">
        <lane id=":1539812608_0_0" index="0" allow="private emergency authority army vip passenger hov taxi bus coach delivery truck trailer motorcycle evehicle custom1 custom2" speed="13.89" length="20.47" shape="723.13,118.76 717.06,118.92 712.87,118.89 708.74,118.44 702.87,117.32"/>
        <lane id=":1539812608_0_1" index="1" allow="private emergency authority army vip passenger hov taxi bus coach delivery truck trailer motorcycle evehicle custom1 custom2" speed="13.89" length="20.47" shape="723.20,121.96 717.07,122.13 712.83,122.12 708.66,121.68 702.78,120.57"/>
    </edge>
    <edge id=":1539812608_2" function="internal">
        <lane id=":1539812608_2_0" index="0" allow="private emergency authority army vip passenger hov taxi bus coach delivery truck trailer motorcycle evehicle custom1 custom2" speed="13.89" length="20.60" shape="723.20,121.96 717.09,122.16 712.87,122.67 708.84,123.90 703.31,126.25"/>
        <lane id=":1539812608_2_1" index="1" allow="private emergency authority army vip passenger hov taxi bus coach delivery truck trailer motorcycle evehicle custom1 custom2" speed="13.89" length="20.06" shape="723.28,125.16 717.35,125.36 713.28,125.89 709.38,127.13 703.93,129.47"/>
    </edge>
    <edge id=":1637003430_0" function="internal">
        <lane id=":1637003430_0_0" index="0" disallow="tram rail_urban rail rail_electric rail_fast ship" speed="8.77" length="11.18" shape="670.68,64.73 671.02,62.17 672.15,59.88 674.08,57.85 676.80,56.09"/>
        <lane id=":1637003430_0_1" index="1" disallow="tram rail_urban rail rail_electric rail_fast ship" speed="11.00" length="11.61" shape="670.68,64.73 670.85,61.44 671.51,58.56 672.65,56.08 674.29,54.02"/>
    </edge>
    <edge id=":1637003430_2" function="internal">
        <lane id=":1637003430_2_0" index="0" disallow="tram rail_urban rail rail_electric rail_fast ship" speed="16.67" length="12.12" shape="670.68,64.73 670.34,52.59"/>
        <lane id=":1637003430_2_1" index="1" disallow="tram rail_urban rail rail_electric rail_fast ship" speed="16.67" length="12.12" shape="667.48,64.79 667.15,52.68"/>
        <lane id=":1637003430_2_2" index="2" disallow="tram rail_urban rail rail_electric rail_fast ship" speed="16.67" length="12.12" shape="664.28,64.86 663.95,52.77"/>
    </edge>
    <edge id=":1637003440_0" function="internal">
        <lane id=":1637003440_0_0" index="0" allow="private emergency authority army vip passenger hov taxi bus coach delivery truck trailer motorcycle evehicle custom1 custom2" speed="13.10" length="20.33" shape="681.94,107.12 677.32,103.23 673.99,99.25 671.96,95.19 671.22,91.04"/>
        <lane id=":1637003440_0_1" index="1" allow="private emergency authority army vip passenger hov taxi bus coach delivery truck trailer motorcycle evehicle custom1 custom2" speed="13.33" length="20.33" shape="678.15,108.32 673.80,104.52 670.66,100.39 668.73,95.92 668.02,91.11"/>
    </edge>
    <edge id=":1637003440_2" function="internal">
        <lane id=":1637003440_2_0" index="0" disallow="tram rail_urban rail rail_electric rail_fast ship" speed="16.67" length="19.36" shape="671.67,110.39 671.22,91.04"/>
        <lane id=":1637003440_2_1" index="1" disallow="tram rail_urban rail rail_electric rail_fast ship" speed="16.67" length="19.36" shape="668.48,110.47 668.02,91.11"/>
        <lane id=":1637003440_2_2" index="2" disallow="tram rail_urban rail rail_electric rail_fast ship" speed="16.67" length="19.36" shape="665.28,110.54 664.82,91.18"/>
    </edge>
    <edge id=":1637003454_0" function="internal">
        <lane id=":1637003454_0_0" index="0" allow="private emergency authority army vip passenger hov taxi bus coach delivery truck trailer motorcycle evehicle custom1 custom2" speed="13.89" length="8.11" shape="477.99,174.43 480.30,174.82 481.82,175.48 483.33,176.17 485.64,176.66"/>
        <lane id=":1637003454_0_1" index="1" allow="private emergency authority army vip passenger hov taxi bus coach delivery truck trailer motorcycle evehicle custom1 custom2" speed="13.89" length="8.11" shape="477.99,174.43 480.36,174.32 481.98,173.89 483.60,173.48 485.96,173.47"/>
        <lane id=":1637003454_0_2" index="2" allow="private emergency authority army vip passenger hov taxi bus coach delivery truck trailer motorcycle evehicle custom1 custom2" speed="13.89" length="8.11" shape="478.18,171.23 480.59,171.13 482.24,170.70 483.88,170.30 486.29,170.29"/>
    </edge>
    <edge id=":1823877234_0" function="internal">
        <lane id=":1823877234_0_0" index="0" allow="private emergency authority army vip passenger hov taxi bus coach delivery truck trailer motorcycle evehicle custom1 custom2" speed="13.89" length="15.88" shape="579.00,112.32 575.57,112.92 572.24,113.45 568.35,113.81 563.24,113.90"/>
    </edge>
    <edge id=":1823877234_1" function="internal">
        <lane id=":1823877234_1_0" index="0" allow="private emergency authority army vip passenger hov taxi bus coach delivery truck trailer motorcycle evehicle custom1 custom2" speed="13.89" length="15.90" shape="579.04,116.62 574.34,115.81 571.16,114.94 567.97,114.23 563.24,113.90"/>
        <lane id=":1823877234_1_1" index="1" allow="private emergency authority army vip passenger hov taxi bus coach delivery truck trailer motorcycle evehicle custom1 custom2" speed="13.89" length="15.90" shape="578.66,119.80 574.06,119.00 570.95,118.13 567.83,117.43 563.20,117.10"/>
    </edge>
    <edge id=":2670196624_0" function="internal">
        <lane id=":2670196624_0_0" index="0" allow="private emergency authority army vip passenger hov taxi bus coach delivery truck trailer motorcycle evehicle custom1 custom2" speed="13.89" length="8.20" shape="444.59,115.83 442.20,115.56 440.60,114.99 439.00,114.44 436.61,114.18"/>
    </edge>
    <edge id=":39477474#1-AddedOnRampNode_0" function="internal">
        <lane id=":39477474#1-AddedOnRampNode_0_0" index="0" allow="private emergency authority army vip passenger hov taxi bus coach delivery truck trailer motorcycle evehicle custom1 custom2" speed="25.00" length="8.00" shape="1226.27,146.02 1234.26,145.55"/>
        <lane id=":39477474#1-AddedOnRampNode_0_1" index="1" allow="private emergency authority army vip passenger hov taxi bus coach delivery truck trailer motorcycle evehicle custom1 custom2" speed="25.00" length="8.00" shape="1226.08,142.83 1234.07,142.35"/>
        <lane id=":39477474#1-AddedOnRampNode_0_2" index="2" allow="private emergency authority army vip passenger hov taxi bus coach delivery truck trailer motorcycle evehicle custom1 custom2" speed="25.00" length="8.00" shape="1225.90,139.63 1233.88,139.16"/>
        <lane id=":39477474#1-AddedOnRampNode_0_3" index="3" allow="private emergency authority army vip passenger hov taxi bus coach delivery truck trailer motorcycle evehicle custom1 custom2" speed="25.00" length="8.00" shape="1225.71,136.44 1233.69,135.96"/>
    </edge>
    <edge id=":4684190323_0" function="internal">
        <lane id=":4684190323_0_0" index="0" disallow="tram rail_urban rail rail_electric rail_fast ship" speed="16.67" length="8.19" shape="673.72,308.87 673.96,306.44 674.50,304.81 675.01,303.17 675.20,300.74"/>
        <lane id=":4684190323_0_1" index="1" disallow="tram rail_urban rail rail_electric rail_fast ship" speed="16.67" length="8.19" shape="673.72,308.87 673.46,306.46 672.90,304.85 672.31,303.24 672.00,300.83"/>
        <lane id=":4684190323_0_2" index="2" disallow="tram rail_urban rail rail_electric rail_fast ship" speed="16.67" length="8.19" shape="670.52,308.88 670.26,306.49 669.70,304.90 669.12,303.31 668.80,300.92"/>
        <lane id=":4684190323_0_3" index="3" disallow="tram rail_urban rail rail_electric rail_fast ship" speed="16.67" length="8.19" shape="667.32,308.89 667.06,306.52 666.50,304.95 665.92,303.37 665.60,301.00"/>
        <lane id=":4684190323_0_4" index="4" disallow="tram rail_urban rail rail_electric rail_fast ship" speed="16.67" length="8.19" shape="664.12,308.90 663.86,306.55 663.30,304.99 662.72,303.43 662.40,301.09"/>
    </edge>
    <edge id=":472802014_0" function="internal">
        <lane id=":472802014_0_0" index="0" allow="private emergency authority army vip passenger hov taxi bus coach delivery truck trailer motorcycle evehicle custom1 custom2" speed="23.61" length="0.30" shape="577.37,131.96 577.08,131.95"/>
        <lane id=":472802014_0_1" index="1" allow="private emergency authority army vip passenger hov taxi bus coach delivery truck trailer motorcycle evehicle custom1 custom2" speed="23.61" length="0.30" shape="577.27,135.16 576.97,135.15"/>
        <lane id=":472802014_0_2" index="2" allow="private emergency authority army vip passenger hov taxi bus coach delivery truck trailer motorcycle evehicle custom1 custom2" speed="23.61" length="0.30" shape="577.17,138.35 576.87,138.34"/>
        <lane id=":472802014_0_3" index="3" allow="private emergency authority army vip passenger hov taxi bus coach delivery truck trailer motorcycle evehicle custom1 custom2" speed="23.61" length="0.30" shape="577.07,141.55 576.76,141.54"/>
    </edge>
    <edge id=":564822185_0" function="internal">
        <lane id=":564822185_0_0" index="0" disallow="tram rail_urban rail rail_electric rail_fast ship" speed="16.67" length="19.86" shape="650.30,201.40 650.80,221.36"/>
        <lane id=":564822185_0_1" index="1" disallow="tram rail_urban rail rail_electric rail_fast ship" speed="16.67" length="19.86" shape="653.50,201.52 654.00,221.38"/>
        <lane id=":564822185_0_2" index="2" disallow="tram rail_urban rail rail_electric rail_fast ship" speed="16.67" length="19.86" shape="656.69,201.64 657.20,221.39"/>
    </edge>
    <edge id=":564822185_3" function="internal">
        <lane id=":564822185_3_0" index="0" allow="private emergency authority army vip passenger hov taxi bus coach delivery truck trailer motorcycle evehicle custom1 custom2" speed="15.28" length="20.57" shape="642.15,202.71 644.66,208.01 646.36,211.72 647.32,215.59 647.60,221.35"/>
        <lane id=":564822185_3_1" index="1" allow="private emergency authority army vip passenger hov taxi bus coach delivery truck trailer motorcycle evehicle custom1 custom2" speed="15.28" length="20.57" shape="645.35,202.02 647.90,207.49 649.60,211.36 650.54,215.39 650.80,221.36"/>
        <lane id=":564822185_3_2" index="2" allow="private emergency authority army vip passenger hov taxi bus coach delivery truck trailer motorcycle evehicle custom1 custom2" speed="15.28" length="20.57" shape="645.35,202.02 648.40,207.42 651.20,211.16 653.24,215.17 654.00,221.38"/>
    </edge>
    <edge id=":5980661442_0" function="internal">
        <lane id=":5980661442_0_0" index="0" disallow="tram rail_urban rail rail_electric rail_fast ship" speed="16.67" length="8.21" shape="647.25,293.49 646.99,295.86 646.42,297.45 645.85,299.03 645.57,301.40"/>
        <lane id=":5980661442_0_1" index="1" disallow="tram rail_urban rail rail_electric rail_fast ship" speed="16.67" length="8.21" shape="650.45,293.51 650.19,295.89 649.62,297.48 649.05,299.07 648.76,301.45"/>
        <lane id=":5980661442_0_2" index="2" disallow="tram rail_urban rail rail_electric rail_fast ship" speed="16.67" length="8.21" shape="653.65,293.52 653.39,295.92 652.82,297.51 652.25,299.11 651.96,301.51"/>
        <lane id=":5980661442_0_3" index="3" disallow="tram rail_urban rail rail_electric rail_fast ship" speed="16.67" length="8.21" shape="656.85,293.54 656.59,295.94 656.02,297.55 655.45,299.15 655.16,301.56"/>
        <lane id=":5980661442_0_4" index="4" disallow="tram rail_urban rail rail_electric rail_fast ship" speed="16.67" length="8.21" shape="656.85,293.54 657.09,295.95 657.62,297.57 658.15,299.19 658.36,301.61"/>
    </edge>
    <edge id=":5991923052_0" function="internal">
        <lane id=":5991923052_0_0" index="0" allow="private emergency authority army vip passenger hov taxi bus coach delivery truck trailer motorcycle evehicle custom1 custom2" speed="25.00" length="8.21" shape="477.69,156.43 480.08,156.78 481.66,157.39 483.24,157.99 485.63,158.33"/>
        <lane id=":5991923052_0_1" index="1" allow="private emergency authority army vip passenger hov taxi bus coach delivery truck trailer motorcycle evehicle custom1 custom2" speed="25.00" length="8.21" shape="477.81,153.24 480.20,153.58 481.78,154.19 483.36,154.80 485.75,155.13"/>
        <lane id=":5991923052_0_2" index="2" allow="private emergency authority army vip passenger hov taxi bus coach delivery truck trailer motorcycle evehicle custom1 custom2" speed="25.00" length="8.21" shape="477.94,150.04 480.32,150.38 481.90,150.99 483.48,151.60 485.87,151.94"/>
        <lane id=":5991923052_0_3" index="3" allow="private emergency authority army vip passenger hov taxi bus coach delivery truck trailer motorcycle evehicle custom1 custom2" speed="25.00" length="8.21" shape="478.06,146.84 480.44,147.18 482.02,147.79 483.60,148.40 485.98,148.74"/>
    </edge>
    <edge id=":cluster_1823883130_1823883144_4684079460_4684079461_#4more_0" function="internal">
        <lane id=":cluster_1823883130_1823883144_4684079460_4684079461_#4more_0_0" index="0" allow="private emergency authority army vip passenger hov taxi bus coach delivery truck trailer motorcycle evehicle custom1 custom2" speed="7.37" length="17.54" shape="677.90,140.87 675.39,141.63 673.55,139.67 672.41,135.00 671.95,127.60"/>
    </edge>
    <edge id=":cluster_1823883130_1823883144_4684079460_4684079461_#4more_1" function="internal">
        <lane id=":cluster_1823883130_1823883144_4684079460_4684079461_#4more_1_0" index="0" allow="private emergency authority army vip passenger hov taxi bus coach delivery truck trailer motorcycle evehicle custom1 custom2" speed="15.28" length="37.74" shape="677.90,140.87 667.92,148.99 660.72,156.45 656.31,163.27 654.70,169.44"/>
        <lane id=":cluster_1823883130_1823883144_4684079460_4684079461_#4more_1_1" index="1" allow="private emergency authority army vip passenger hov taxi bus coach delivery truck trailer motorcycle evehicle custom1 custom2" speed="15.28" length="34.90" shape="679.81,143.44 670.37,151.06 663.57,157.95 659.41,164.12 657.90,169.56"/>
    </edge>
    <edge id=":cluster_1823883130_1823883144_4684079460_4684079461_#4more_3" function="internal">
        <lane id=":cluster_1823883130_1823883144_4684079460_4684079461_#4more_3_0" index="0" allow="private emergency authority army vip passenger hov taxi bus coach delivery truck trailer motorcycle evehicle custom1 custom2" speed="8.24" length="19.98" shape="679.81,143.44 675.32,147.72 673.78,151.71 675.19,155.42 679.54,158.83"/>
    </edge>
    <edge id=":cluster_1823883130_1823883144_4684079460_4684079461_#4more_4" function="internal">
        <lane id=":cluster_1823883130_1823883144_4684079460_4684079461_#4more_4_0" index="0" disallow="tram rail_urban rail rail_electric rail_fast ship" speed="16.67" length="42.42" shape="673.57,170.15 671.95,127.60"/>
        <lane id=":cluster_1823883130_1823883144_4684079460_4684079461_#4more_4_1" index="1" disallow="tram rail_urban rail rail_electric rail_fast ship" speed="16.67" length="42.42" shape="670.37,170.03 668.75,127.64"/>
        <lane id=":cluster_1823883130_1823883144_4684079460_4684079461_#4more_4_2" index="2" disallow="tram rail_urban rail rail_electric rail_fast ship" speed="16.67" length="42.42" shape="667.17,169.91 665.55,127.68"/>
    </edge>
    <edge id=":cluster_1823883130_1823883144_4684079460_4684079461_#4more_7" function="internal">
        <lane id=":cluster_1823883130_1823883144_4684079460_4684079461_#4more_7_0" index="0" allow="private emergency authority army vip passenger hov taxi bus coach delivery truck trailer motorcycle evehicle custom1 custom2" speed="15.28" length="14.76" shape="663.97,169.79 662.95,161.74 660.15,155.72"/>
    </edge>
    <edge id=":cluster_1823883130_1823883144_4684079460_4684079461_#4more_8" function="internal">
        <lane id=":cluster_1823883130_1823883144_4684079460_4684079461_#4more_8_0" index="0" disallow="tram rail_urban rail rail_electric rail_fast ship" speed="4.63" length="5.56" shape="663.97,169.79 662.54,167.45 661.05,166.64 660.03,167.10"/>
    </edge>
    <edge id=":cluster_1823883130_1823883144_4684079460_4684079461_#4more_18" function="internal">
        <lane id=":cluster_1823883130_1823883144_4684079460_4684079461_#4more_18_0" index="0" allow="private emergency authority army vip passenger hov taxi bus coach delivery truck trailer motorcycle evehicle custom1 custom2" speed="15.28" length="21.26" shape="660.15,155.72 659.47,154.25 653.54,147.32 645.16,140.95"/>
    </edge>
    <edge id=":cluster_1823883130_1823883144_4684079460_4684079461_#4more_19" function="internal">
        <lane id=":cluster_1823883130_1823883144_4684079460_4684079461_#4more_19_0" index="0" disallow="tram rail_urban rail rail_electric rail_fast ship" speed="4.63" length="3.32" shape="660.03,167.10 659.50,167.34 657.90,169.56"/>
    </edge>
    <edge id=":cluster_1823883130_1823883144_4684079460_4684079461_#4more_9" function="internal">
        <lane id=":cluster_1823883130_1823883144_4684079460_4684079461_#4more_9_0" index="0" allow="private emergency authority army vip passenger hov taxi bus coach delivery truck trailer motorcycle evehicle custom1 custom2" speed="6.96" length="15.77" shape="646.18,157.99 648.73,157.11 650.46,158.70 651.39,162.77 651.50,169.32"/>
    </edge>
    <edge id=":cluster_1823883130_1823883144_4684079460_4684079461_#4more_10" function="internal">