<?xml version="1.0" encoding="UTF-8"?>

<!-- generated on 2023-07-17 15:28:07 by Eclipse SUMO netconvert Version 1.17.0
<configuration xmlns:xsi="http://www.w3.org/2001/XMLSchema-instance" xsi:noNamespaceSchemaLocation="http://sumo.dlr.de/xsd/netconvertConfiguration.xsd">

    <input>
        <sumo-net-file value="osm.net.xml.gz"/>
    </input>

    <output>
        <output-file value="osm.net.xml"/>
        <output.street-names value="true"/>
    </output>

    <processing>
        <geometry.min-radius.fix.railways value="false"/>
        <geometry.max-grade.fix value="false"/>
        <offset.disable-normalization value="true"/>
        <lefthand value="1"/>
    </processing>

    <junctions>
        <no-turnarounds value="true"/>
        <junctions.corner-detail value="5"/>
        <junctions.limit-turn-speed value="5.50"/>
        <rectangular-lane-cut value="0"/>
    </junctions>

    <pedestrian>
        <walkingareas value="0"/>
    </pedestrian>

</configuration>
-->

<net version="1.16" junctionCornerDetail="5" lefthand="true" limitTurnSpeed="5.50" xmlns:xsi="http://www.w3.org/2001/XMLSchema-instance" xsi:noNamespaceSchemaLocation="http://sumo.dlr.de/xsd/net_file.xsd">

    <location netOffset="-366811.89,-142178.47" convBoundary="0.00,0.00,316.85,305.35" origBoundary="103.802860,1.286050,103.805707,1.288812" projParameter="+proj=utm +zone=48 +ellps=WGS84 +datum=WGS84 +units=m +no_defs"/>

    <type id="highway.bridleway" priority="1" numLanes="1" speed="2.78" allow="pedestrian" oneway="1" width="2.00"/>
    <type id="highway.bus_guideway" priority="1" numLanes="1" speed="27.78" allow="bus" oneway="1"/>
    <type id="highway.cycleway" priority="1" numLanes="1" speed="5.56" allow="bicycle" oneway="0" width="1.00"/>
    <type id="highway.footway" priority="1" numLanes="1" speed="2.78" allow="pedestrian" oneway="1" width="2.00"/>
    <type id="highway.ford" priority="1" numLanes="1" speed="2.78" allow="army" oneway="0"/>
    <type id="highway.living_street" priority="2" numLanes="1" speed="2.78" disallow="tram rail_urban rail rail_electric rail_fast ship" oneway="0"/>
    <type id="highway.motorway" priority="14" numLanes="2" speed="39.44" allow="private emergency authority army vip passenger hov taxi bus coach delivery truck trailer motorcycle evehicle custom1 custom2" oneway="1"/>
    <type id="highway.motorway_link" priority="9" numLanes="1" speed="22.22" allow="private emergency authority army vip passenger hov taxi bus coach delivery truck trailer motorcycle evehicle custom1 custom2" oneway="1"/>
    <type id="highway.path" priority="1" numLanes="1" speed="5.56" allow="pedestrian bicycle" oneway="0" width="2.00"/>
    <type id="highway.pedestrian" priority="1" numLanes="1" speed="2.78" allow="pedestrian" oneway="1" width="2.00"/>
    <type id="highway.primary" priority="12" numLanes="2" speed="27.78" disallow="tram rail_urban rail rail_electric rail_fast ship" oneway="0"/>
    <type id="highway.primary_link" priority="7" numLanes="1" speed="22.22" disallow="tram rail_urban rail rail_electric rail_fast ship" oneway="0"/>
    <type id="highway.raceway" priority="15" numLanes="2" speed="83.33" allow="vip" oneway="0"/>
    <type id="highway.residential" priority="3" numLanes="1" speed="13.89" disallow="tram rail_urban rail rail_electric rail_fast ship" oneway="0"/>
    <type id="highway.secondary" priority="11" numLanes="1" speed="27.78" disallow="tram rail_urban rail rail_electric rail_fast ship" oneway="0"/>
    <type id="highway.secondary_link" priority="6" numLanes="1" speed="22.22" disallow="tram rail_urban rail rail_electric rail_fast ship" oneway="0"/>
    <type id="highway.service" priority="1" numLanes="1" speed="5.56" allow="pedestrian delivery bicycle" oneway="0"/>
    <type id="highway.stairs" priority="1" numLanes="1" speed="1.39" allow="pedestrian" oneway="1" width="2.00"/>
    <type id="highway.step" priority="1" numLanes="1" speed="1.39" allow="pedestrian" oneway="1" width="2.00"/>
    <type id="highway.steps" priority="1" numLanes="1" speed="1.39" allow="pedestrian" oneway="1" width="2.00"/>
    <type id="highway.tertiary" priority="10" numLanes="1" speed="22.22" disallow="tram rail_urban rail rail_electric rail_fast ship" oneway="0"/>
    <type id="highway.tertiary_link" priority="5" numLanes="1" speed="22.22" disallow="tram rail_urban rail rail_electric rail_fast ship" oneway="0"/>
    <type id="highway.track" priority="1" numLanes="1" speed="5.56" allow="pedestrian motorcycle moped bicycle" oneway="0"/>
    <type id="highway.trunk" priority="13" numLanes="2" speed="27.78" disallow="pedestrian bicycle tram rail_urban rail rail_electric rail_fast ship" oneway="0"/>
    <type id="highway.trunk_link" priority="8" numLanes="1" speed="22.22" disallow="pedestrian bicycle tram rail_urban rail rail_electric rail_fast ship" oneway="0"/>
    <type id="highway.unclassified" priority="4" numLanes="1" speed="13.89" disallow="tram rail_urban rail rail_electric rail_fast ship" oneway="0"/>
    <type id="highway.unsurfaced" priority="1" numLanes="1" speed="8.33" disallow="tram rail_urban rail rail_electric rail_fast ship" oneway="0"/>
    <type id="railway.highspeed" priority="21" numLanes="1" speed="69.44" allow="rail_fast" oneway="1"/>
    <type id="railway.light_rail" priority="19" numLanes="1" speed="27.78" allow="rail_urban" oneway="1"/>
    <type id="railway.preserved" priority="16" numLanes="1" speed="27.78" allow="rail" oneway="1"/>
    <type id="railway.rail" priority="20" numLanes="1" speed="44.44" allow="rail" oneway="1"/>
    <type id="railway.subway" priority="18" numLanes="1" speed="27.78" allow="rail_urban" oneway="1"/>
    <type id="railway.tram" priority="17" numLanes="1" speed="13.89" allow="tram" oneway="1"/>

    <edge id=":1717842195_0" function="internal">
        <lane id=":1717842195_0_0" index="0" disallow="tram rail_urban rail rail_electric rail_fast ship" speed="12.55" length="15.85" shape="131.22,176.27 131.39,180.57 131.40,183.70 130.50,186.45 127.95,189.64"/>
        <lane id=":1717842195_0_1" index="1" disallow="tram rail_urban rail rail_electric rail_fast ship" speed="13.71" length="15.85" shape="134.42,175.91 134.58,181.07 134.50,184.79 133.33,188.07 130.22,191.88"/>
    </edge>
    <edge id=":1717842195_2" function="internal">
        <lane id=":1717842195_2_0" index="0" allow="bus bicycle" speed="7.28" length="2.98" shape="134.42,175.91 134.96,178.85"/>
    </edge>
    <edge id=":1717842195_9" function="internal">
        <lane id=":1717842195_9_0" index="0" allow="bus bicycle" speed="7.28" length="15.78" shape="134.96,178.85 135.43,181.38 138.05,185.30 141.68,186.67 145.73,184.48"/>
    </edge>
    <edge id=":1717842195_3" function="internal">
        <lane id=":1717842195_3_0" index="0" disallow="tram rail_urban rail rail_electric rail_fast ship" speed="16.67" length="16.03" shape="138.75,177.89 127.95,189.64"/>
        <lane id=":1717842195_3_1" index="1" disallow="tram rail_urban rail rail_electric rail_fast ship" speed="16.67" length="16.03" shape="141.08,180.09 130.22,191.88"/>
        <lane id=":1717842195_3_2" index="2" disallow="tram rail_urban rail rail_electric rail_fast ship" speed="16.67" length="16.03" shape="143.41,182.28 132.50,194.13"/>
    </edge>
    <edge id=":1717842195_6" function="internal">
        <lane id=":1717842195_6_0" index="0" allow="bus bicycle" speed="3.65" length="1.44" shape="143.41,182.28 143.16,183.70"/>
    </edge>
    <edge id=":1717842195_10" function="internal">
        <lane id=":1717842195_10_0" index="0" allow="bus bicycle" speed="3.65" length="3.23" shape="143.16,183.70 143.47,184.54 144.33,184.80 145.73,184.48"/>
    </edge>
    <edge id=":1717842195_7" function="internal">
        <lane id=":1717842195_7_0" index="0" allow="bus bicycle" speed="16.67" length="16.18" shape="134.78,196.38 145.73,184.48"/>
    </edge>
    <edge id=":1717842195_8" function="internal">
        <lane id=":1717842195_8_0" index="0" allow="bus bicycle" speed="3.65" length="1.44" shape="134.78,196.38 135.05,194.97"/>
    </edge>
    <edge id=":1717842195_11" function="internal">
        <lane id=":1717842195_11_0" index="0" allow="bus bicycle" speed="3.65" length="3.23" shape="135.05,194.97 134.76,194.12 133.91,193.84 132.50,194.13"/>
    </edge>
    <edge id=":1717842214_0" function="internal">
        <lane id=":1717842214_0_0" index="0" disallow="tram rail_urban rail rail_electric rail_fast ship" speed="15.28" length="21.75" shape="188.49,124.29 183.82,128.50 179.70,130.29 175.06,131.00 168.86,131.96"/>
    </edge>
    <edge id=":1717842214_1" function="internal">
        <lane id=":1717842214_1_0" index="0" disallow="tram rail_urban rail rail_electric rail_fast ship" speed="16.67" length="22.09" shape="188.49,124.29 184.12,129.01 180.97,132.09 177.64,134.99 172.74,139.17"/>
        <lane id=":1717842214_1_1" index="1" disallow="tram rail_urban rail rail_electric rail_fast ship" speed="16.67" length="22.09" shape="190.87,126.43 186.45,131.21 183.26,134.33 179.89,137.27 174.93,141.50"/>
        <lane id=":1717842214_1_2" index="2" disallow="tram rail_urban rail rail_electric rail_fast ship" speed="16.67" length="22.09" shape="193.25,128.57 188.77,133.41 185.55,136.57 182.14,139.55 177.13,143.84"/>
        <lane id=":1717842214_1_3" index="3" disallow="tram rail_urban rail rail_electric rail_fast ship" speed="16.67" length="22.09" shape="195.62,130.71 191.10,135.61 187.84,138.81 184.40,141.83 179.32,146.17"/>
    </edge>
    <edge id=":1717842214_5" function="internal">
        <lane id=":1717842214_5_0" index="0" allow="bus bicycle" speed="3.65" length="1.31" shape="198.00,132.86 197.81,134.15"/>
    </edge>
    <edge id=":1717842214_9" function="internal">
        <lane id=":1717842214_9_0" index="0" allow="bus bicycle" speed="3.65" length="3.37" shape="197.81,134.15 197.79,134.28 198.12,135.12 198.98,135.36 200.38,135.00"/>
    </edge>
    <edge id=":1717842214_6" function="internal">
        <lane id=":1717842214_6_0" index="0" allow="bus bicycle" speed="16.67" length="23.22" shape="181.52,148.50 185.59,145.53 191.11,141.92 196.55,138.22 200.38,135.00"/>
    </edge>
    <edge id=":1717842214_7" function="internal">
        <lane id=":1717842214_7_0" index="0" allow="bus bicycle" speed="7.78" length="2.07" shape="181.52,148.50 182.48,146.67"/>
    </edge>
    <edge id=":1717842214_8" function="internal">
        <lane id=":1717842214_8_0" index="0" allow="bus bicycle" speed="3.65" length="1.44" shape="181.52,148.50 181.84,147.10"/>
    </edge>
    <edge id=":1717842214_10" function="internal">
        <lane id=":1717842214_10_0" index="0" allow="bus bicycle" speed="7.78" length="22.14" shape="182.48,146.67 184.22,143.38 182.13,138.57 176.82,135.36 169.85,135.02"/>
    </edge>
    <edge id=":1717842214_11" function="internal">
        <lane id=":1717842214_11_0" index="0" allow="bus bicycle" speed="3.65" length="3.23" shape="181.84,147.10 181.59,146.24 180.75,145.93 179.32,146.17"/>
    </edge>
    <edge id=":1717842265_0" function="internal">
        <lane id=":1717842265_0_0" index="0" allow="bus bicycle" speed="16.67" length="4.08" shape="164.25,183.85 163.50,184.79 163.13,185.55 162.76,186.30 161.99,187.22"/>
    </edge>
    <edge id=":1717842265_1" function="internal">
        <lane id=":1717842265_1_0" index="0" allow="bus bicycle" speed="9.24" length="4.23" shape="164.25,183.85 162.51,187.71"/>
    </edge>
    <edge id=":1717842265_2" function="internal">
        <lane id=":1717842265_2_0" index="0" allow="bus bicycle" speed="3.66" length="1.45" shape="164.25,183.85 163.86,185.25"/>
    </edge>
    <edge id=":1717842265_10" function="internal">
        <lane id=":1717842265_10_0" index="0" allow="bus bicycle" speed="9.24" length="25.97" shape="162.51,187.71 161.55,189.86 165.32,194.12 173.18,196.72 182.76,197.76"/>
    </edge>
    <edge id=":1717842265_11" function="internal">
        <lane id=":1717842265_11_0" index="0" allow="bus bicycle" speed="3.66" length="3.24" shape="163.86,185.25 164.08,186.12 164.91,186.47 166.35,186.29"/>
    </edge>
    <edge id=":1717842265_3" function="internal">
        <lane id=":1717842265_3_0" index="0" disallow="tram rail_urban rail rail_electric rail_fast ship" speed="9.37" length="8.23" shape="175.41,200.95 177.14,199.51 178.94,198.50 180.82,197.92 182.76,197.76"/>
    </edge>
    <edge id=":1717842265_4" function="internal">
        <lane id=":1717842265_4_0" index="0" disallow="tram rail_urban rail rail_electric rail_fast ship" speed="16.67" length="3.48" shape="173.18,198.66 173.73,197.95 173.96,197.36 174.19,196.75 174.73,196.03"/>
        <lane id=":1717842265_4_1" index="1" disallow="tram rail_urban rail rail_electric rail_fast ship" speed="16.67" length="3.48" shape="170.94,196.38 171.53,195.62 171.80,194.99 172.05,194.36 172.63,193.59"/>
        <lane id=":1717842265_4_2" index="2" disallow="tram rail_urban rail rail_electric rail_fast ship" speed="16.67" length="3.48" shape="168.70,194.09 169.34,193.29 169.63,192.63 169.91,191.97 170.54,191.16"/>
        <lane id=":1717842265_4_3" index="3" disallow="tram rail_urban rail rail_electric rail_fast ship" speed="16.67" length="3.48" shape="166.47,191.80 167.15,190.96 167.46,190.27 167.78,189.58 168.44,188.72"/>
        <lane id=":1717842265_4_4" index="4" disallow="tram rail_urban rail rail_electric rail_fast ship" speed="16.67" length="3.48" shape="164.23,189.51 164.95,188.63 165.30,187.91 165.64,187.18 166.35,186.29"/>
    </edge>
    <edge id=":1717842265_9" function="internal">
        <lane id=":1717842265_9_0" index="0" allow="bus bicycle" speed="3.65" length="1.44" shape="164.23,189.51 164.53,188.10"/>
    </edge>
    <edge id=":1717842265_12" function="internal">
        <lane id=":1717842265_12_0" index="0" allow="bus bicycle" speed="3.65" length="3.23" shape="164.53,188.10 164.25,187.25 163.41,186.96 161.99,187.22"/>
    </edge>
    <edge id=":1717842414_0" function="internal">
        <lane id=":1717842414_0_0" index="0" disallow="tram rail_urban rail rail_electric rail_fast ship" speed="15.28" length="24.35" shape="226.99,177.71 223.76,175.15 217.39,170.05 211.16,164.89 208.31,162.12"/>
    </edge>
    <edge id=":1717842414_1" function="internal">
        <lane id=":1717842414_1_0" index="0" disallow="tram rail_urban rail rail_electric rail_fast ship" speed="16.67" length="17.95" shape="224.97,180.20 220.45,176.81 217.10,174.87 213.56,173.20 208.49,170.63"/>
        <lane id=":1717842414_1_1" index="1" disallow="tram rail_urban rail rail_electric rail_fast ship" speed="16.67" length="17.95" shape="222.96,182.68 218.57,179.40 215.31,177.53 211.87,175.93 206.96,173.44"/>
        <lane id=":1717842414_1_2" index="2" disallow="tram rail_urban rail rail_electric rail_fast ship" speed="16.67" length="17.95" shape="220.94,185.17 216.69,181.99 213.53,180.20 210.19,178.65 205.43,176.24"/>
        <lane id=":1717842414_1_3" index="3" disallow="tram rail_urban rail rail_electric rail_fast ship" speed="16.67" length="17.95" shape="218.92,187.65 214.81,184.59 211.74,182.86 208.51,181.38 203.90,179.05"/>
        <lane id=":1717842414_1_4" index="4" disallow="tram rail_urban rail rail_electric rail_fast ship" speed="16.67" length="17.95" shape="216.90,190.13 212.93,187.18 209.95,185.52 206.82,184.10 202.36,181.86"/>
    </edge>
    <edge id=":1717842417_0" function="internal">
        <lane id=":1717842417_0_0" index="0" disallow="tram rail_urban rail rail_electric rail_fast ship" speed="15.28" length="20.83" shape="186.89,197.89 190.90,197.99 195.48,198.52 200.67,200.14 206.53,203.52"/>
    </edge>
    <edge id=":1717842417_1" function="internal">
        <lane id=":1717842417_1_0" index="0" disallow="tram rail_urban rail rail_electric rail_fast ship" speed="16.67" length="20.77" shape="188.90,192.94 206.53,203.52"/>
        <lane id=":1717842417_1_1" index="1" disallow="tram rail_urban rail rail_electric rail_fast ship" speed="16.67" length="20.77" shape="190.61,190.23 208.41,200.93"/>
        <lane id=":1717842417_1_2" index="2" disallow="tram rail_urban rail rail_electric rail_fast ship" speed="16.67" length="20.77" shape="192.31,187.52 210.28,198.33"/>
    </edge>
    <edge id=":1717842431_0" function="internal">
        <lane id=":1717842431_0_0" index="0" allow="bus bicycle" speed="16.67" length="10.75" shape="203.96,145.97 201.72,148.08 199.85,149.41 197.95,150.71 195.62,152.73"/>
    </edge>
    <edge id=":1717842431_1" function="internal">
        <lane id=":1717842431_1_0" index="0" allow="bus bicycle" speed="3.65" length="1.44" shape="203.96,145.97 203.72,147.40"/>
    </edge>
    <edge id=":1717842431_8" function="internal">
        <lane id=":1717842431_8_0" index="0" allow="bus bicycle" speed="3.65" length="3.23" shape="203.72,147.40 204.03,148.24 204.89,148.49 206.30,148.17"/>
    </edge>
    <edge id=":1717842431_2" function="internal">
        <lane id=":1717842431_2_0" index="0" disallow="tram rail_urban rail rail_electric rail_fast ship" speed="9.93" length="10.05" shape="208.29,161.92 208.25,159.11 208.68,156.61 209.58,154.42 210.96,152.55"/>
    </edge>
    <edge id=":1717842431_3" function="internal">
        <lane id=":1717842431_3_0" index="0" allow="bus bicycle" speed="8.20" length="22.71" shape="208.29,161.92 206.80,153.94 204.19,149.75 200.46,149.34 195.62,152.73"/>
    </edge>
    <edge id=":1717842431_4" function="internal">
        <lane id=":1717842431_4_0" index="0" disallow="tram rail_urban rail rail_electric rail_fast ship" speed="16.67" length="11.03" shape="202.33,159.59 204.82,157.42 206.71,156.13 208.56,154.81 210.96,152.55"/>
        <lane id=":1717842431_4_1" index="1" disallow="tram rail_urban rail rail_electric rail_fast ship" speed="16.67" length="11.03" shape="200.09,157.30 202.56,155.16 204.42,153.89 206.26,152.59 208.63,150.36"/>
        <lane id=":1717842431_4_2" index="2" disallow="tram rail_urban rail rail_electric rail_fast ship" speed="16.67" length="11.03" shape="197.86,155.02 200.29,152.90 202.14,151.65 203.95,150.37 206.30,148.17"/>
    </edge>
    <edge id=":1717842431_7" function="internal">
        <lane id=":1717842431_7_0" index="0" allow="bus bicycle" speed="3.65" length="1.44" shape="197.86,155.02 198.15,153.60"/>
    </edge>
    <edge id=":1717842431_9" function="internal">
        <lane id=":1717842431_9_0" index="0" allow="bus bicycle" speed="3.65" length="3.23" shape="198.15,153.60 197.88,152.75 197.04,152.46 195.62,152.73"/>
    </edge>
    <edge id=":1717842493_0" function="internal">
        <lane id=":1717842493_0_0" index="0" allow="bus bicycle" speed="16.67" length="12.10" shape="147.29,159.18 137.41,152.20"/>
    </edge>
    <edge id=":1717842493_1" function="internal">
        <lane id=":1717842493_1_0" index="0" allow="bus bicycle" speed="9.08" length="2.29" shape="147.29,159.18 145.10,158.54"/>
    </edge>
    <edge id=":1717842493_2" function="internal">
        <lane id=":1717842493_2_0" index="0" allow="bus bicycle" speed="3.65" length="1.44" shape="147.29,159.18 145.85,159.18"/>
    </edge>
    <edge id=":1717842493_10" function="internal">
        <lane id=":1717842493_10_0" index="0" allow="bus bicycle" speed="9.08" length="24.61" shape="145.10,158.54 141.19,157.41 137.22,160.67 135.07,167.31 134.42,175.71"/>
    </edge>
    <edge id=":1717842493_11" function="internal">
        <lane id=":1717842493_11_0" index="0" allow="bus bicycle" speed="3.65" length="3.23" shape="145.85,159.18 145.08,159.63 144.97,160.52 145.53,161.85"/>
    </edge>
    <edge id=":1717842493_3" function="internal">
        <lane id=":1717842493_3_0" index="0" disallow="tram rail_urban rail rail_electric rail_fast ship" speed="8.47" length="9.10" shape="127.10,168.40 128.90,169.86 130.19,171.63 130.96,173.69 131.22,176.07"/>
    </edge>
    <edge id=":1717842493_4" function="internal">
        <lane id=":1717842493_4_0" index="0" disallow="tram rail_urban rail rail_electric rail_fast ship" speed="16.67" length="11.92" shape="128.82,165.70 138.45,172.52"/>
        <lane id=":1717842493_4_1" index="1" disallow="tram rail_urban rail rail_electric rail_fast ship" speed="16.67" length="11.92" shape="130.54,163.00 140.22,169.85"/>
        <lane id=":1717842493_4_2" index="2" disallow="tram rail_urban rail rail_electric rail_fast ship" speed="16.67" length="11.92" shape="132.26,160.30 141.99,167.18"/>
        <lane id=":1717842493_4_3" index="3" disallow="tram rail_urban rail rail_electric rail_fast ship" speed="16.67" length="11.92" shape="133.97,157.60 143.76,164.51"/>
        <lane id=":1717842493_4_4" index="4" disallow="tram rail_urban rail rail_electric rail_fast ship" speed="16.67" length="11.92" shape="135.69,154.90 145.53,161.85"/>
    </edge>
    <edge id=":1717842493_9" function="internal">
        <lane id=":1717842493_9_0" index="0" allow="bus bicycle" speed="3.65" length="1.44" shape="135.69,154.90 137.13,154.87"/>
    </edge>
    <edge id=":1717842493_12" function="internal">
        <lane id=":1717842493_12_0" index="0" allow="bus bicycle" speed="3.65" length="3.23" shape="137.13,154.87 137.90,154.41 137.99,153.52 137.41,152.20"/>
    </edge>
    <edge id=":172483939_0" function="internal">
        <lane id=":172483939_0_0" index="0" disallow="tram rail_urban rail rail_electric rail_fast ship" speed="16.67" length="19.88" shape="174.87,195.89 177.96,191.01 178.56,186.68 179.20,182.37 182.39,177.60"/>
        <lane id=":172483939_0_1" index="1" disallow="tram rail_urban rail rail_electric rail_fast ship" speed="16.67" length="19.88" shape="172.77,193.45 175.82,188.62 176.40,184.31 177.01,180.04 180.16,175.31"/>
        <lane id=":172483939_0_2" index="2" disallow="tram rail_urban rail rail_electric rail_fast ship" speed="16.67" length="19.88" shape="170.68,191.02 173.69,186.22 174.24,181.95 174.81,177.71 177.93,173.02"/>
        <lane id=":172483939_0_3" index="3" disallow="tram rail_urban rail rail_electric rail_fast ship" speed="16.67" length="19.88" shape="168.58,188.58 171.56,183.83 172.07,179.59 172.62,175.38 175.69,170.72"/>
        <lane id=":172483939_0_4" index="4" disallow="tram rail_urban rail rail_electric rail_fast ship" speed="16.67" length="19.88" shape="166.49,186.15 169.42,181.44 169.91,177.22 170.43,173.04 173.46,168.43"/>
    </edge>
    <edge id=":172483939_5" function="internal">
        <lane id=":172483939_5_0" index="0" allow="bus bicycle" speed="5.20" length="5.89" shape="161.77,179.08 163.47,180.54 164.47,181.80 164.78,182.86 164.39,183.71"/>
    </edge>
    <edge id=":172483939_6" function="internal">
        <lane id=":172483939_6_0" index="0" disallow="tram rail_urban rail rail_electric rail_fast ship" speed="16.67" length="27.23" shape="163.72,176.54 170.31,181.40 175.00,184.47 179.82,187.34 186.82,191.62"/>
        <lane id=":172483939_6_1" index="1" disallow="tram rail_urban rail rail_electric rail_fast ship" speed="16.67" length="27.23" shape="165.66,174.00 172.16,178.79 176.79,181.81 181.55,184.65 188.44,188.87"/>
        <lane id=":172483939_6_2" index="2" disallow="tram rail_urban rail rail_electric rail_fast ship" speed="16.67" length="27.23" shape="167.60,171.45 174.01,176.18 178.58,179.16 183.27,181.95 190.07,186.11"/>
    </edge>
    <edge id=":172483939_9" function="internal">
        <lane id=":172483939_9_0" index="0" disallow="tram rail_urban rail rail_electric rail_fast ship" speed="7.07" length="6.95" shape="169.55,168.91 172.72,171.19 175.17,172.63 176.91,173.24 177.93,173.02"/>
        <lane id=":172483939_9_1" index="1" disallow="tram rail_urban rail rail_electric rail_fast ship" speed="6.07" length="6.95" shape="169.55,168.91 171.61,170.31 173.33,171.08 174.69,171.22 175.69,170.72"/>
        <lane id=":172483939_9_2" index="2" disallow="tram rail_urban rail rail_electric rail_fast ship" speed="5.00" length="6.95" shape="169.55,168.91 170.51,169.43 171.48,169.52 172.47,169.19 173.46,168.43"/>
    </edge>
    <edge id=":1792723992_0" function="internal">
        <lane id=":1792723992_0_0" index="0" allow="bus bicycle" speed="16.67" length="6.64" shape="50.80,97.90 49.12,96.88 47.98,96.15 46.89,95.37 45.32,94.18"/>
    </edge>
    <edge id=":1792723992_1" function="internal">
        <lane id=":1792723992_1_0" index="0" disallow="tram rail_urban rail rail_electric rail_fast ship" speed="16.67" length="8.20" shape="37.55,104.36 39.28,106.29 39.94,108.13 40.66,109.88 42.53,111.60"/>
        <lane id=":1792723992_1_1" index="1" disallow="tram rail_urban rail rail_electric rail_fast ship" speed="16.67" length="8.20" shape="39.49,101.81 41.14,103.69 41.74,105.48 42.39,107.20 44.18,108.86"/>
        <lane id=":1792723992_1_2" index="2" disallow="tram rail_urban rail rail_electric rail_fast ship" speed="16.67" length="8.20" shape="41.44,99.27 43.00,101.08 43.54,102.83 44.13,104.51 45.84,106.12"/>
        <lane id=":1792723992_1_3" index="3" disallow="tram rail_urban rail rail_electric rail_fast ship" speed="16.67" length="8.20" shape="43.38,96.72 44.86,98.48 45.34,100.18 45.87,101.82 47.49,103.38"/>
        <lane id=":1792723992_1_4" index="4" disallow="tram rail_urban rail rail_electric rail_fast ship" speed="16.67" length="8.20" shape="43.38,96.72 45.03,97.97 46.18,98.80 47.37,99.57 49.15,100.64"/>
    </edge>
    <edge id=":1792729692_0" function="internal">
        <lane id=":1792729692_0_0" index="0" allow="bus bicycle" speed="3.65" length="4.67" shape="50.62,292.26 50.24,293.65 50.47,294.51 51.29,294.85 52.72,294.66"/>
    </edge>
    <edge id=":243218790_0" function="internal">
        <lane id=":243218790_0_0" index="0" allow="bus bicycle" speed="8.75" length="14.97" shape="194.57,153.75 191.47,155.97 188.17,156.77 184.68,156.15 180.99,154.10"/>
        <lane id=":243218790_0_1" index="1" allow="bus bicycle" speed="9.36" length="17.30" shape="194.57,153.75 190.48,156.99 186.54,158.55 182.75,158.45 179.10,156.68"/>
    </edge>
    <edge id=":243218790_2" function="internal">
        <lane id=":243218790_2_0" index="0" disallow="tram rail_urban rail rail_electric rail_fast ship" speed="16.67" length="26.35" shape="202.70,167.46 196.03,163.86 191.51,161.31 187.15,158.50 180.99,154.10"/>
        <lane id=":243218790_2_1" index="1" disallow="tram rail_urban rail rail_electric rail_fast ship" speed="16.67" length="26.35" shape="201.16,170.27 194.38,166.60 189.79,164.01 185.36,161.15 179.10,156.68"/>
        <lane id=":243218790_2_2" index="2" disallow="tram rail_urban rail rail_electric rail_fast ship" speed="16.67" length="26.35" shape="199.61,173.07 192.74,169.35 188.07,166.72 183.58,163.81 177.22,159.26"/>
        <lane id=":243218790_2_3" index="3" disallow="tram rail_urban rail rail_electric rail_fast ship" speed="16.67" length="26.35" shape="198.07,175.88 191.09,172.10 186.35,169.42 181.79,166.47 175.33,161.85"/>
        <lane id=":243218790_2_4" index="4" disallow="tram rail_urban rail rail_electric rail_fast ship" speed="16.67" length="26.35" shape="196.53,178.68 189.44,174.84 184.63,172.12 180.00,169.12 173.44,164.43"/>
    </edge>
    <edge id=":243218790_7" function="internal">
        <lane id=":243218790_7_0" index="0" disallow="tram rail_urban rail rail_electric rail_fast ship" speed="16.67" length="25.53" shape="182.54,177.46 201.64,160.27"/>
        <lane id=":243218790_7_1" index="1" disallow="tram rail_urban rail rail_electric rail_fast ship" speed="16.67" length="25.53" shape="180.30,175.17 199.28,158.10"/>
        <lane id=":243218790_7_2" index="2" disallow="tram rail_urban rail rail_electric rail_fast ship" speed="16.67" length="25.53" shape="178.07,172.88 196.92,155.92"/>
    </edge>
    <edge id=":243218790_10" function="internal">
        <lane id=":243218790_10_0" index="0" disallow="tram rail_urban rail rail_electric rail_fast ship" speed="6.57" length="7.50" shape="175.84,170.58 177.65,168.24 178.16,166.01 177.39,163.88 175.33,161.85"/>
        <lane id=":243218790_10_1" index="1" disallow="tram rail_urban rail rail_electric rail_fast ship" speed="4.64" length="7.50" shape="173.60,168.29 174.42,167.25 174.66,166.26 174.34,165.32 173.44,164.43"/>
    </edge>
    <edge id=":247046840_0" function="internal">
        <lane id=":247046840_0_0" index="0" disallow="tram rail_urban rail rail_electric rail_fast ship" speed="16.67" length="21.25" shape="172.59,139.30 168.79,144.06 167.59,148.40 166.44,152.81 162.85,157.79"/>
        <lane id=":247046840_0_1" index="1" disallow="tram rail_urban rail rail_electric rail_fast ship" speed="16.67" length="21.25" shape="174.78,141.63 171.00,146.39 169.79,150.72 168.65,155.13 165.06,160.10"/>
        <lane id=":247046840_0_2" index="2" disallow="tram rail_urban rail rail_electric rail_fast ship" speed="16.67" length="21.25" shape="176.98,143.97 173.20,148.71 171.99,153.04 170.86,157.45 167.28,162.41"/>
        <lane id=":247046840_0_3" index="3" disallow="tram rail_urban rail rail_electric rail_fast ship" speed="16.67" length="21.25" shape="179.17,146.30 175.40,151.04 174.20,155.37 173.07,159.77 169.49,164.72"/>
    </edge>
    <edge id=":247046840_4" function="internal">
        <lane id=":247046840_4_0" index="0" allow="bus bicycle" speed="5.25" length="6.46" shape="180.83,153.98 179.72,152.81 179.43,151.52 179.98,150.13 181.37,148.63"/>
    </edge>
    <edge id=":247046840_5" function="internal">
        <lane id=":247046840_5_0" index="0" disallow="tram rail_urban rail rail_electric rail_fast ship" speed="16.67" length="21.82" shape="178.94,156.56 174.12,152.20 171.44,148.47 168.66,144.89 163.56,140.95"/>
        <lane id=":247046840_5_1" index="1" disallow="tram rail_urban rail rail_electric rail_fast ship" speed="16.67" length="21.82" shape="177.06,159.15 172.30,154.83 169.66,151.13 166.93,147.58 161.89,143.68"/>