<?xml version="1.0" encoding="UTF-8"?>

<!-- generated on 2023-07-17 13:11:16 by Eclipse SUMO netconvert Version 1.17.0
<configuration xmlns:xsi="http://www.w3.org/2001/XMLSchema-instance" xsi:noNamespaceSchemaLocation="http://sumo.dlr.de/xsd/netconvertConfiguration.xsd">

    <input>
        <sumo-net-file value="osm.net.xml.gz"/>
    </input>

    <output>
        <output-file value="osm.net.xml"/>
        <output.street-names value="true"/>
    </output>

    <processing>
        <geometry.min-radius.fix.railways value="false"/>
        <geometry.max-grade.fix value="false"/>
        <offset.disable-normalization value="true"/>
        <lefthand value="1"/>
    </processing>

    <junctions>
        <no-turnarounds value="true"/>
        <junctions.corner-detail value="5"/>
        <junctions.limit-turn-speed value="5.50"/>
        <rectangular-lane-cut value="0"/>
    </junctions>

    <pedestrian>
        <walkingareas value="0"/>
    </pedestrian>

</configuration>
-->

<net version="1.16" junctionCornerDetail="5" lefthand="true" limitTurnSpeed="5.50" xmlns:xsi="http://www.w3.org/2001/XMLSchema-instance" xsi:noNamespaceSchemaLocation="http://sumo.dlr.de/xsd/net_file.xsd">

    <location netOffset="-375300.02,-143933.64" convBoundary="0.00,0.00,685.59,673.39" origBoundary="103.879136,1.301962,103.885296,1.308053" projParameter="+proj=utm +zone=48 +ellps=WGS84 +datum=WGS84 +units=m +no_defs"/>

    <type id="highway.bridleway" priority="1" numLanes="1" speed="2.78" allow="pedestrian" oneway="1" width="2.00"/>
    <type id="highway.bus_guideway" priority="1" numLanes="1" speed="27.78" allow="bus" oneway="1"/>
    <type id="highway.cycleway" priority="1" numLanes="1" speed="5.56" allow="bicycle" oneway="0" width="1.00"/>
    <type id="highway.footway" priority="1" numLanes="1" speed="2.78" allow="pedestrian" oneway="1" width="2.00"/>
    <type id="highway.ford" priority="1" numLanes="1" speed="2.78" allow="army" oneway="0"/>
    <type id="highway.living_street" priority="2" numLanes="1" speed="2.78" disallow="tram rail_urban rail rail_electric rail_fast ship" oneway="0"/>
    <type id="highway.motorway" priority="14" numLanes="2" speed="39.44" allow="private emergency authority army vip passenger hov taxi bus coach delivery truck trailer motorcycle evehicle custom1 custom2" oneway="1"/>
    <type id="highway.motorway_link" priority="9" numLanes="1" speed="22.22" allow="private emergency authority army vip passenger hov taxi bus coach delivery truck trailer motorcycle evehicle custom1 custom2" oneway="1"/>
    <type id="highway.path" priority="1" numLanes="1" speed="5.56" allow="pedestrian bicycle" oneway="0" width="2.00"/>
    <type id="highway.pedestrian" priority="1" numLanes="1" speed="2.78" allow="pedestrian" oneway="1" width="2.00"/>
    <type id="highway.primary" priority="12" numLanes="2" speed="27.78" disallow="tram rail_urban rail rail_electric rail_fast ship" oneway="0"/>
    <type id="highway.primary_link" priority="7" numLanes="1" speed="22.22" disallow="tram rail_urban rail rail_electric rail_fast ship" oneway="0"/>
    <type id="highway.raceway" priority="15" numLanes="2" speed="83.33" allow="vip" oneway="0"/>
    <type id="highway.residential" priority="3" numLanes="1" speed="13.89" disallow="tram rail_urban rail rail_electric rail_fast ship" oneway="0"/>
    <type id="highway.secondary" priority="11" numLanes="1" speed="27.78" disallow="tram rail_urban rail rail_electric rail_fast ship" oneway="0"/>
    <type id="highway.secondary_link" priority="6" numLanes="1" speed="22.22" disallow="tram rail_urban rail rail_electric rail_fast ship" oneway="0"/>
    <type id="highway.service" priority="1" numLanes="1" speed="5.56" allow="pedestrian delivery bicycle" oneway="0"/>
    <type id="highway.stairs" priority="1" numLanes="1" speed="1.39" allow="pedestrian" oneway="1" width="2.00"/>
    <type id="highway.step" priority="1" numLanes="1" speed="1.39" allow="pedestrian" oneway="1" width="2.00"/>
    <type id="highway.steps" priority="1" numLanes="1" speed="1.39" allow="pedestrian" oneway="1" width="2.00"/>
    <type id="highway.tertiary" priority="10" numLanes="1" speed="22.22" disallow="tram rail_urban rail rail_electric rail_fast ship" oneway="0"/>
    <type id="highway.tertiary_link" priority="5" numLanes="1" speed="22.22" disallow="tram rail_urban rail rail_electric rail_fast ship" oneway="0"/>
    <type id="highway.track" priority="1" numLanes="1" speed="5.56" allow="pedestrian motorcycle moped bicycle" oneway="0"/>
    <type id="highway.trunk" priority="13" numLanes="2" speed="27.78" disallow="pedestrian bicycle tram rail_urban rail rail_electric rail_fast ship" oneway="0"/>
    <type id="highway.trunk_link" priority="8" numLanes="1" speed="22.22" disallow="pedestrian bicycle tram rail_urban rail rail_electric rail_fast ship" oneway="0"/>
    <type id="highway.unclassified" priority="4" numLanes="1" speed="13.89" disallow="tram rail_urban rail rail_electric rail_fast ship" oneway="0"/>
    <type id="highway.unsurfaced" priority="1" numLanes="1" speed="8.33" disallow="tram rail_urban rail rail_electric rail_fast ship" oneway="0"/>
    <type id="railway.highspeed" priority="21" numLanes="1" speed="69.44" allow="rail_fast" oneway="1"/>
    <type id="railway.light_rail" priority="19" numLanes="1" speed="27.78" allow="rail_urban" oneway="1"/>
    <type id="railway.preserved" priority="16" numLanes="1" speed="27.78" allow="rail" oneway="1"/>
    <type id="railway.rail" priority="20" numLanes="1" speed="44.44" allow="rail" oneway="1"/>
    <type id="railway.subway" priority="18" numLanes="1" speed="27.78" allow="rail_urban" oneway="1"/>
    <type id="railway.tram" priority="17" numLanes="1" speed="13.89" allow="tram" oneway="1"/>

    <edge id=":243474814_0" function="internal">
        <lane id=":243474814_0_0" index="0" disallow="tram rail_urban rail rail_electric rail_fast ship" speed="16.67" length="8.18" shape="284.91,503.67 286.87,502.39 288.43,501.84 290.00,501.31 292.01,500.08"/>
        <lane id=":243474814_0_1" index="1" disallow="tram rail_urban rail rail_electric rail_fast ship" speed="16.67" length="8.18" shape="282.88,501.20 284.87,499.90 286.44,499.34 288.03,498.79 290.06,497.54"/>
        <lane id=":243474814_0_2" index="2" disallow="tram rail_urban rail rail_electric rail_fast ship" speed="16.67" length="8.18" shape="280.86,498.72 282.86,497.40 284.45,496.83 286.05,496.28 288.10,495.01"/>
        <lane id=":243474814_0_3" index="3" disallow="tram rail_urban rail rail_electric rail_fast ship" speed="16.67" length="8.18" shape="278.83,496.24 280.86,494.91 282.46,494.33 284.08,493.76 286.15,492.48"/>
        <lane id=":243474814_0_4" index="4" disallow="tram rail_urban rail rail_electric rail_fast ship" speed="16.67" length="8.18" shape="278.83,496.24 280.56,494.51 281.48,493.06 282.42,491.62 284.19,489.94"/>
    </edge>
    <edge id=":245378774_0" function="internal">
        <lane id=":245378774_0_0" index="0" disallow="tram rail_urban rail rail_electric rail_fast ship" speed="13.89" length="8.58" shape="500.01,517.36 498.05,515.85 497.19,514.20 496.33,512.53 494.40,510.97"/>
        <lane id=":245378774_0_1" index="1" disallow="tram rail_urban rail rail_electric rail_fast ship" speed="13.89" length="8.58" shape="498.62,520.24 496.63,518.72 495.75,517.06 494.88,515.38 492.93,513.81"/>
        <lane id=":245378774_0_2" index="2" disallow="tram rail_urban rail rail_electric rail_fast ship" speed="13.89" length="8.58" shape="498.62,520.24 491.46,516.65"/>
        <lane id=":245378774_0_3" index="3" disallow="tram rail_urban rail rail_electric rail_fast ship" speed="13.89" length="8.58" shape="498.62,520.24 496.16,519.60 494.28,519.90 492.41,520.18 489.99,519.49"/>
    </edge>
    <edge id=":2927574665_0" function="internal">
        <lane id=":2927574665_0_0" index="0" disallow="tram rail_urban rail rail_electric rail_fast ship" speed="7.27" length="5.62" shape="206.70,371.48 205.55,370.83 204.59,369.92 203.83,368.73 203.27,367.27"/>
    </edge>
    <edge id=":2927574665_1" function="internal">
        <lane id=":2927574665_1_0" index="0" disallow="tram rail_urban rail rail_electric rail_fast ship" speed="13.89" length="7.11" shape="205.49,374.44 203.70,373.43 202.67,372.38 201.65,371.33 199.87,370.29"/>
        <lane id=":2927574665_1_1" index="1" disallow="tram rail_urban rail rail_electric rail_fast ship" speed="13.89" length="7.11" shape="204.28,377.41 202.48,376.39 201.44,375.34 200.41,374.28 198.62,373.24"/>
        <lane id=":2927574665_1_2" index="2" disallow="tram rail_urban rail rail_electric rail_fast ship" speed="13.89" length="7.11" shape="203.07,380.37 201.26,379.34 200.21,378.29 199.18,377.23 197.38,376.18"/>
        <lane id=":2927574665_1_3" index="3" disallow="tram rail_urban rail rail_electric rail_fast ship" speed="13.89" length="7.11" shape="201.86,383.33 200.03,382.30 198.98,381.25 197.94,380.18 196.13,379.13"/>
    </edge>
    <edge id=":2927574666_0" function="internal">
        <lane id=":2927574666_0_0" index="0" disallow="tram rail_urban rail rail_electric rail_fast ship" speed="15.28" length="38.88" shape="386.60,395.59 376.43,402.96 367.27,406.97 358.94,408.92 351.27,410.09"/>
        <lane id=":2927574666_0_1" index="1" disallow="tram rail_urban rail rail_electric rail_fast ship" speed="15.28" length="38.90" shape="386.60,395.59 376.60,403.46 367.86,408.51 359.97,411.49 352.50,413.13"/>
    </edge>
    <edge id=":2927574666_2" function="internal">
        <lane id=":2927574666_2_0" index="0" disallow="tram rail_urban rail rail_electric rail_fast ship" speed="16.67" length="39.40" shape="386.60,395.59 377.69,402.82 371.08,407.11 364.28,411.15 354.80,417.69"/>
        <lane id=":2927574666_2_1" index="1" disallow="tram rail_urban rail rail_electric rail_fast ship" speed="16.67" length="39.40" shape="388.72,397.99 379.74,405.28 373.08,409.60 366.23,413.69 356.68,420.28"/>
        <lane id=":2927574666_2_2" index="2" disallow="tram rail_urban rail rail_electric rail_fast ship" speed="16.67" length="39.40" shape="390.84,400.39 381.79,407.74 375.08,412.10 368.18,416.23 358.55,422.87"/>
        <lane id=":2927574666_2_3" index="3" disallow="tram rail_urban rail rail_electric rail_fast ship" speed="16.67" length="39.40" shape="392.96,402.78 383.84,410.20 377.08,414.60 370.13,418.77 360.43,425.47"/>
        <lane id=":2927574666_2_4" index="4" disallow="tram rail_urban rail rail_electric rail_fast ship" speed="16.67" length="39.40" shape="395.07,405.18 385.89,412.66 379.08,417.10 372.08,421.31 362.30,428.06"/>
    </edge>
    <edge id=":2927574668_0" function="internal">
        <lane id=":2927574668_0_0" index="0" disallow="tram rail_urban rail rail_electric rail_fast ship" speed="13.89" length="18.94" shape="307.75,413.74 302.30,414.08 298.49,414.13 294.83,413.39 289.81,411.41"/>
        <lane id=":2927574668_0_1" index="1" disallow="tram rail_urban rail rail_electric rail_fast ship" speed="13.89" length="18.94" shape="307.47,416.96 301.70,417.29 297.67,417.28 293.81,416.45 288.50,414.33"/>
    </edge>
    <edge id=":2927574668_2" function="internal">
        <lane id=":2927574668_2_0" index="0" disallow="tram rail_urban rail rail_electric rail_fast ship" speed="13.89" length="24.66" shape="310.99,424.75 288.50,414.33"/>
        <lane id=":2927574668_2_1" index="1" disallow="tram rail_urban rail rail_electric rail_fast ship" speed="13.89" length="24.66" shape="309.46,427.56 287.19,417.25"/>
    </edge>
    <edge id=":2927574675_0" function="internal">
        <lane id=":2927574675_0_0" index="0" disallow="tram rail_urban rail rail_electric rail_fast ship" speed="6.51" length="9.01" shape="487.31,539.22 488.67,537.16 490.36,536.03 492.39,535.82 494.75,536.54"/>
    </edge>
    <edge id=":2927574675_1" function="internal">
        <lane id=":2927574675_1_0" index="0" disallow="tram rail_urban rail rail_electric rail_fast ship" speed="6.61" length="9.09" shape="481.91,530.21 483.91,531.65 484.99,533.40 485.16,535.46 484.41,537.85"/>
    </edge>
    <edge id=":2927574675_2" function="internal">
        <lane id=":2927574675_2_0" index="0" disallow="tram rail_urban rail rail_electric rail_fast ship" speed="13.89" length="14.18" shape="481.91,530.21 494.75,536.54"/>
        <lane id=":2927574675_2_1" index="1" disallow="tram rail_urban rail rail_electric rail_fast ship" speed="13.89" length="14.18" shape="483.38,527.37 496.10,533.64"/>
        <lane id=":2927574675_2_2" index="2" disallow="tram rail_urban rail rail_electric rail_fast ship" speed="13.89" length="14.18" shape="484.85,524.53 497.46,530.75"/>
    </edge>
    <edge id=":2927574678_0" function="internal">
        <lane id=":2927574678_0_0" index="0" disallow="tram rail_urban rail rail_electric rail_fast ship" speed="6.39" length="9.04" shape="618.86,594.78 620.95,596.15 622.05,597.84 622.18,599.86 621.32,602.21"/>
    </edge>
    <edge id=":2927574678_1" function="internal">
        <lane id=":2927574678_1_0" index="0" disallow="tram rail_urban rail rail_electric rail_fast ship" speed="13.89" length="9.48" shape="618.86,594.78 627.32,598.86"/>
        <lane id=":2927574678_1_1" index="1" disallow="tram rail_urban rail rail_electric rail_fast ship" speed="13.89" length="9.48" shape="620.22,591.88 628.77,596.00"/>
        <lane id=":2927574678_1_2" index="2" disallow="tram rail_urban rail rail_electric rail_fast ship" speed="13.89" length="9.48" shape="621.58,588.98 630.21,593.15"/>
    </edge>
    <edge id=":3633794670_0" function="internal">
        <lane id=":3633794670_0_0" index="0" disallow="tram rail_urban rail rail_electric rail_fast ship" speed="13.89" length="14.32" shape="225.78,418.52 237.80,425.10"/>
        <lane id=":3633794670_0_1" index="1" disallow="tram rail_urban rail rail_electric rail_fast ship" speed="13.89" length="14.32" shape="225.78,418.52 229.60,419.89 232.38,420.39 235.16,420.86 239.03,422.15"/>
        <lane id=":3633794670_0_2" index="2" disallow="tram rail_urban rail rail_electric rail_fast ship" speed="13.89" length="14.32" shape="225.78,418.52 229.89,419.47 232.99,418.92 236.10,418.33 240.25,419.19"/>
        <lane id=":3633794670_0_3" index="3" disallow="tram rail_urban rail rail_electric rail_fast ship" speed="13.89" length="14.32" shape="227.07,415.59 231.16,416.54 234.24,415.97 237.34,415.38 241.47,416.23"/>
        <lane id=":3633794670_0_4" index="4" disallow="tram rail_urban rail rail_electric rail_fast ship" speed="13.89" length="14.32" shape="228.36,412.67 232.44,413.60 235.50,413.03 238.58,412.43 242.69,413.28"/>
    </edge>
    <edge id=":3633794670_5" function="internal">
        <lane id=":3633794670_5_0" index="0" disallow="pedestrian tram rail_urban rail rail_electric rail_fast ship" speed="9.11" length="14.39" shape="229.65,409.74 232.95,410.60 236.18,410.22 239.33,408.60 242.40,405.75"/>
    </edge>
    <edge id=":3633794703_0" function="internal">
        <lane id=":3633794703_0_0" index="0" disallow="tram rail_urban rail rail_electric rail_fast ship" speed="13.80" length="12.12" shape="416.37,410.22 417.02,407.14 417.68,404.86 418.88,402.78 421.17,400.33"/>
        <lane id=":3633794703_0_1" index="1" disallow="tram rail_urban rail rail_electric rail_fast ship" speed="14.78" length="12.12" shape="416.37,410.22 416.60,406.85 416.37,403.88 416.80,401.03 418.97,398.00"/>
    </edge>
    <edge id=":3633794703_2" function="internal">
        <lane id=":3633794703_2_0" index="0" disallow="tram rail_urban rail rail_electric rail_fast ship" speed="16.67" length="11.05" shape="411.65,406.73 421.17,400.33"/>
        <lane id=":3633794703_2_1" index="1" disallow="tram rail_urban rail rail_electric rail_fast ship" speed="16.67" length="11.05" shape="409.67,404.22 418.97,398.00"/>
        <lane id=":3633794703_2_2" index="2" disallow="tram rail_urban rail rail_electric rail_fast ship" speed="16.67" length="11.05" shape="407.69,401.71 416.78,395.67"/>
        <lane id=":3633794703_2_3" index="3" disallow="tram rail_urban rail rail_electric rail_fast ship" speed="16.67" length="11.05" shape="405.71,399.19 414.59,393.34"/>
    </edge>
    <edge id=":3633794709_0" function="internal">
        <lane id=":3633794709_0_0" index="0" disallow="tram rail_urban rail rail_electric rail_fast ship" speed="13.89" length="34.42" shape="187.67,400.04 196.45,405.28 203.22,410.83 208.88,416.35 214.36,421.52"/>
        <lane id=":3633794709_0_1" index="1" disallow="tram rail_urban rail rail_electric rail_fast ship" speed="13.89" length="34.60" shape="187.67,400.04 196.78,404.90 204.26,409.61 210.64,414.30 216.45,419.09"/>
    </edge>
    <edge id=":3633794709_2" function="internal">
        <lane id=":3633794709_2_0" index="0" disallow="tram rail_urban rail rail_electric rail_fast ship" speed="13.89" length="34.52" shape="187.67,400.04 218.75,415.42"/>
        <lane id=":3633794709_2_1" index="1" disallow="tram rail_urban rail rail_electric rail_fast ship" speed="13.89" length="34.52" shape="189.09,397.17 220.04,412.50"/>
        <lane id=":3633794709_2_2" index="2" disallow="tram rail_urban rail rail_electric rail_fast ship" speed="13.89" length="34.52" shape="190.50,394.30 221.34,409.57"/>
        <lane id=":3633794709_2_3" index="3" disallow="tram rail_urban rail rail_electric rail_fast ship" speed="13.89" length="34.52" shape="190.50,394.30 198.99,398.05 205.71,400.35 212.86,402.71 222.63,406.64"/>
    </edge>
    <edge id=":3633794862_0" function="internal">
        <lane id=":3633794862_0_0" index="0" disallow="pedestrian tram rail_urban rail rail_electric rail_fast ship" speed="15.28" length="41.66" shape="244.33,534.82 281.31,516.13"/>
        <lane id=":3633794862_0_1" index="1" disallow="pedestrian tram rail_urban rail rail_electric rail_fast ship" speed="15.28" length="41.66" shape="244.33,534.82 256.40,528.71 265.66,522.52 273.19,517.07 280.09,513.17"/>
    </edge>
    <edge id=":3633794862_2" function="internal">
        <lane id=":3633794862_2_0" index="0" disallow="pedestrian tram rail_urban rail rail_electric rail_fast ship" speed="16.67" length="41.64" shape="243.09,531.87 254.13,526.89 261.59,522.51 268.50,517.20 277.86,509.44"/>
        <lane id=":3633794862_2_1" index="1" disallow="pedestrian tram rail_urban rail rail_electric rail_fast ship" speed="16.67" length="40.72" shape="241.85,528.92 252.77,524.01 259.96,519.79 266.59,514.65 275.84,506.96"/>
        <lane id=":3633794862_2_2" index="2" disallow="pedestrian tram rail_urban rail rail_electric rail_fast ship" speed="16.67" length="39.80" shape="240.62,525.97 251.34,521.15 258.31,517.06 264.73,512.05 273.81,504.49"/>
        <lane id=":3633794862_2_3" index="3" disallow="pedestrian tram rail_urban rail rail_electric rail_fast ship" speed="16.67" length="39.64" shape="240.62,525.97 250.99,520.77 257.29,515.81 263.05,509.94 271.78,502.01"/>
    </edge>
    <edge id=":3633794918_0" function="internal">
        <lane id=":3633794918_0_0" index="0" disallow="tram rail_urban rail rail_electric rail_fast ship" speed="13.89" length="20.88" shape="428.06,508.47 431.90,509.28 436.35,510.13 441.66,511.57 448.10,514.11"/>
    </edge>
    <edge id=":3633794918_1" function="internal">
        <lane id=":3633794918_1_0" index="0" disallow="tram rail_urban rail rail_electric rail_fast ship" speed="13.89" length="20.94" shape="429.30,504.71 448.10,514.11"/>
        <lane id=":3633794918_1_1" index="1" disallow="tram rail_urban rail rail_electric rail_fast ship" speed="13.89" length="20.94" shape="430.71,501.83 449.44,511.21"/>
        <lane id=":3633794918_1_2" index="2" disallow="tram rail_urban rail rail_electric rail_fast ship" speed="13.89" length="20.94" shape="432.12,498.96 450.79,508.31"/>
    </edge>
    <edge id=":3633794919_0" function="internal">
        <lane id=":3633794919_0_0" index="0" disallow="tram rail_urban rail rail_electric rail_fast ship" speed="7.88" length="5.61" shape="428.96,474.40 427.96,473.79 427.06,472.88 426.26,471.65 425.55,470.11"/>
    </edge>
    <edge id=":3633794919_1" function="internal">
        <lane id=":3633794919_1_0" index="0" disallow="tram rail_urban rail rail_electric rail_fast ship" speed="13.89" length="6.92" shape="427.70,477.34 426.04,476.31 425.14,475.21 424.25,474.10 422.60,473.03"/>
        <lane id=":3633794919_1_1" index="1" disallow="tram rail_urban rail rail_electric rail_fast ship" speed="13.89" length="6.92" shape="426.44,480.28 424.75,479.24 423.84,478.14 422.93,477.02 421.26,475.93"/>
        <lane id=":3633794919_1_2" index="2" disallow="tram rail_urban rail rail_electric rail_fast ship" speed="13.89" length="6.92" shape="425.18,483.22 423.47,482.17 422.54,481.06 421.62,479.94 419.93,478.84"/>
        <lane id=":3633794919_1_3" index="3" disallow="tram rail_urban rail rail_electric rail_fast ship" speed="13.89" length="6.92" shape="423.92,486.16 422.19,485.10 421.24,483.99 420.30,482.86 418.59,481.75"/>
        <lane id=":3633794919_1_4" index="4" disallow="tram rail_urban rail rail_electric rail_fast ship" speed="13.89" length="6.92" shape="422.66,489.10 420.91,488.03 419.94,486.91 418.99,485.77 417.25,484.66"/>
    </edge>
    <edge id=":3633794930_0" function="internal">
        <lane id=":3633794930_0_0" index="0" disallow="tram rail_urban rail rail_electric rail_fast ship" speed="11.45" length="14.53" shape="241.37,493.26 240.08,497.70 238.85,501.05 237.68,503.30 236.56,504.47"/>
        <lane id=":3633794930_0_1" index="1" disallow="tram rail_urban rail rail_electric rail_fast ship" speed="12.47" length="14.53" shape="244.43,494.21 242.93,499.21 241.39,503.04 239.79,505.73 238.14,507.25"/>
        <lane id=":3633794930_0_2" index="2" disallow="tram rail_urban rail rail_electric rail_fast ship" speed="13.20" length="14.53" shape="244.43,494.21 243.71,497.02 242.30,502.30 240.78,507.49 239.72,510.04"/>
    </edge>
    <edge id=":3633794930_3" function="internal">
        <lane id=":3633794930_3_0" index="0" disallow="tram rail_urban rail rail_electric rail_fast ship" speed="16.67" length="14.11" shape="247.77,496.64 244.48,499.03 242.29,500.75 240.03,502.37 236.56,504.47"/>
        <lane id=":3633794930_3_1" index="1" disallow="tram rail_urban rail rail_electric rail_fast ship" speed="16.67" length="14.11" shape="249.59,499.27 246.23,501.71 243.99,503.46 241.68,505.11 238.14,507.25"/>
        <lane id=":3633794930_3_2" index="2" disallow="tram rail_urban rail rail_electric rail_fast ship" speed="16.67" length="14.11" shape="251.41,501.90 247.98,504.39 245.69,506.17 243.33,507.85 239.72,510.04"/>
        <lane id=":3633794930_3_3" index="3" disallow="tram rail_urban rail rail_electric rail_fast ship" speed="16.67" length="14.11" shape="253.23,504.53 249.73,507.07 247.39,508.88 244.98,510.60 241.29,512.82"/>
    </edge>
    <edge id=":3955210728_0" function="internal">
        <lane id=":3955210728_0_0" index="0" disallow="tram rail_urban rail rail_electric rail_fast ship" speed="13.89" length="9.10" shape="238.21,244.69 241.66,236.35"/>
        <lane id=":3955210728_0_1" index="1" disallow="tram rail_urban rail rail_electric rail_fast ship" speed="13.89" length="9.10" shape="235.22,243.56 238.73,235.07"/>
    </edge>
    <edge id=":3955210728_2" function="internal">
        <lane id=":3955210728_2_0" index="0" disallow="tram rail_urban rail rail_electric rail_fast ship" speed="6.89" length="7.96" shape="235.22,243.56 235.62,241.66 235.34,239.87 234.38,238.19 232.74,236.62"/>
    </edge>
    <edge id=":3955210730_0" function="internal">
        <lane id=":3955210730_0_0" index="0" disallow="tram rail_urban rail rail_electric rail_fast ship" speed="13.89" length="10.63" shape="253.03,394.93 243.31,390.59"/>
        <lane id=":3955210730_0_1" index="1" disallow="tram rail_urban rail rail_electric rail_fast ship" speed="13.89" length="10.63" shape="251.72,397.85 242.01,393.52"/>
        <lane id=":3955210730_0_2" index="2" disallow="tram rail_urban rail rail_electric rail_fast ship" speed="13.89" length="10.63" shape="250.41,400.77 240.71,396.44"/>
    </edge>
    <edge id=":3955210730_3" function="internal">
        <lane id=":3955210730_3_0" index="0" disallow="pedestrian tram rail_urban rail rail_electric rail_fast ship" speed="7.42" length="10.04" shape="243.64,403.67 244.62,399.98 244.67,397.06 243.80,394.90 242.01,393.52"/>
        <lane id=":3955210730_3_1" index="1" disallow="pedestrian tram rail_urban rail rail_electric rail_fast ship" speed="6.59" length="10.04" shape="243.64,403.67 244.13,401.30 243.81,399.30 242.67,397.68 240.71,396.44"/>
    </edge>
    <edge id=":3963998279_0" function="internal">
        <lane id=":3963998279_0_0" index="0" disallow="tram rail_urban rail rail_electric rail_fast ship" speed="11.11" length="3.49" shape="481.14,549.45 481.76,548.69 482.49,548.41 483.20,548.13 483.79,547.36"/>
    </edge>
    <edge id=":4314666578_0" function="internal">
        <lane id=":4314666578_0_0" index="0" disallow="pedestrian tram rail_urban rail rail_electric rail_fast ship" speed="13.89" length="5.76" shape="372.20,502.88 373.90,502.73 375.07,502.69 376.24,502.71 377.95,502.74"/>
    </edge>
    <edge id=":4314666578_1" function="internal">
        <lane id=":4314666578_1_0" index="0" disallow="pedestrian tram rail_urban rail rail_electric rail_fast ship" speed="13.89" length="12.94" shape="371.86,499.70 384.72,498.27"/>
    </edge>
    <edge id=":4604149147_0" function="internal">
        <lane id=":4604149147_0_0" index="0" disallow="tram rail_urban rail rail_electric rail_fast ship" speed="13.89" length="8.28" shape="227.17,383.44 225.09,381.97 224.10,380.34 223.09,378.72 220.98,377.32"/>
        <lane id=":4604149147_0_1" index="1" disallow="tram rail_urban rail rail_electric rail_fast ship" speed="13.89" length="8.28" shape="227.17,383.44 219.77,380.28"/>
        <lane id=":4604149147_0_2" index="2" disallow="tram rail_urban rail rail_electric rail_fast ship" speed="13.89" length="8.28" shape="225.88,386.36 218.56,383.24"/>
        <lane id=":4604149147_0_3" index="3" disallow="tram rail_urban rail rail_electric rail_fast ship" speed="13.89" length="8.28" shape="224.58,389.29 217.35,386.21"/>
        <lane id=":4604149147_0_4" index="4" disallow="tram rail_urban rail rail_electric rail_fast ship" speed="13.89" length="8.28" shape="224.58,389.29 222.18,388.77 220.38,389.19 218.56,389.62 216.14,389.17"/>
    </edge>
    <edge id=":4604149152_0" function="internal">
        <lane id=":4604149152_0_0" index="0" disallow="tram rail_urban rail rail_electric rail_fast ship" speed="13.89" length="9.27" shape="172.51,392.02 180.78,396.64"/>
        <lane id=":4604149152_0_1" index="1" disallow="tram rail_urban rail rail_electric rail_fast ship" speed="13.89" length="9.27" shape="174.11,389.25 182.19,393.77"/>
        <lane id=":4604149152_0_2" index="2" disallow="tram rail_urban rail rail_electric rail_fast ship" speed="13.89" length="9.27" shape="175.71,386.47 183.60,390.90"/>
    </edge>
    <edge id=":4604149152_3" function="internal">
        <lane id=":4604149152_3_0" index="0" disallow="pedestrian tram rail_urban rail rail_electric rail_fast ship" speed="6.85" length="10.22" shape="180.94,384.10 179.10,387.15 178.69,389.78 179.72,391.99 182.19,393.77"/>
        <lane id=":4604149152_3_1" index="1" disallow="pedestrian tram rail_urban rail rail_electric rail_fast ship" speed="6.01" length="10.22" shape="180.94,384.10 179.94,386.01 180.05,387.78 181.27,389.41 183.60,390.90"/>
    </edge>
    <edge id=":4604149159_0" function="internal">
        <lane id=":4604149159_0_0" index="0" disallow="tram rail_urban rail rail_electric rail_fast ship" speed="13.89" length="5.72" shape="196.45,368.84 194.84,368.39 193.65,368.39 192.46,368.38 190.87,367.89"/>
        <lane id=":4604149159_0_1" index="1" disallow="tram rail_urban rail rail_electric rail_fast ship" speed="13.89" length="5.81" shape="195.20,371.79 193.57,371.33 192.36,371.32 191.15,371.30 189.54,370.80"/>
        <lane id=":4604149159_0_2" index="2" disallow="tram rail_urban rail rail_electric rail_fast ship" speed="13.89" length="5.89" shape="193.95,374.73 192.29,374.26 191.07,374.25 189.84,374.22 188.20,373.71"/>
    </edge>
    <edge id=":4604149159_3" function="internal">
        <lane id=":4604149159_3_0" index="0" disallow="pedestrian tram rail_urban rail rail_electric rail_fast ship" speed="7.12" length="5.07" shape="192.70,377.68 191.53,377.33 190.32,377.27 189.08,377.49 187.80,377.99"/>
    </edge>
    <edge id=":4685505442_0" function="internal">
        <lane id=":4685505442_0_0" index="0" disallow="tram rail_urban rail rail_electric rail_fast ship" speed="6.54" length="8.81" shape="628.16,605.38 629.58,603.42 631.28,602.34 633.27,602.15 635.54,602.84"/>
    </edge>
    <edge id=":4685505442_1" function="internal">
        <lane id=":4685505442_1_0" index="0" disallow="tram rail_urban rail rail_electric rail_fast ship" speed="13.89" length="8.84" shape="627.50,598.95 635.54,602.84"/>
        <lane id=":4685505442_1_1" index="1" disallow="tram rail_urban rail rail_electric rail_fast ship" speed="13.89" length="8.84" shape="628.94,596.09 636.90,599.95"/>
        <lane id=":4685505442_1_2" index="2" disallow="tram rail_urban rail rail_electric rail_fast ship" speed="13.89" length="8.84" shape="630.39,593.24 638.27,597.05"/>
    </edge>
    <edge id=":4685745669_0" function="internal">
        <lane id=":4685745669_0_0" index="0" disallow="pedestrian tram rail_urban rail rail_electric rail_fast ship" speed="16.67" length="0.40" shape="208.18,550.43 208.66,550.22"/>
        <lane id=":4685745669_0_1" index="1" disallow="pedestrian tram rail_urban rail rail_electric rail_fast ship" speed="16.67" length="0.40" shape="206.96,547.48 207.36,547.30"/>