<?xml version="1.0" encoding="UTF-8"?>

<!-- generated on 2023-07-12 16:04:01 by Eclipse SUMO netconvert Version 1.17.0
<configuration xmlns:xsi="http://www.w3.org/2001/XMLSchema-instance" xsi:noNamespaceSchemaLocation="http://sumo.dlr.de/xsd/netconvertConfiguration.xsd">

    <input>
        <sumo-net-file value="osm.net.xml.gz"/>
    </input>

    <output>
        <output-file value="osm.net.xml"/>
        <output.street-names value="true"/>
    </output>

    <processing>
        <geometry.min-radius.fix.railways value="false"/>
        <geometry.max-grade.fix value="false"/>
        <offset.disable-normalization value="true"/>
        <lefthand value="1"/>
    </processing>

    <junctions>
        <no-turnarounds value="true"/>
        <junctions.corner-detail value="5"/>
        <junctions.limit-turn-speed value="5.50"/>
        <rectangular-lane-cut value="0"/>
    </junctions>

    <pedestrian>
        <walkingareas value="0"/>
    </pedestrian>

</configuration>
-->

<net version="1.16" junctionCornerDetail="5" lefthand="true" limitTurnSpeed="5.50" xmlns:xsi="http://www.w3.org/2001/XMLSchema-instance" xsi:noNamespaceSchemaLocation="http://sumo.dlr.de/xsd/net_file.xsd">

    <location netOffset="-362885.12,-156410.04" convBoundary="0.00,0.00,1609.17,1357.63" origBoundary="103.767504,1.414761,103.781962,1.427040" projParameter="+proj=utm +zone=48 +ellps=WGS84 +datum=WGS84 +units=m +no_defs"/>

    <type id="highway.bridleway" priority="1" numLanes="1" speed="2.78" allow="pedestrian" oneway="1" width="2.00"/>
    <type id="highway.bus_guideway" priority="1" numLanes="1" speed="27.78" allow="bus" oneway="1"/>
    <type id="highway.cycleway" priority="1" numLanes="1" speed="5.56" allow="bicycle" oneway="0" width="1.00"/>
    <type id="highway.footway" priority="1" numLanes="1" speed="2.78" allow="pedestrian" oneway="1" width="2.00"/>
    <type id="highway.ford" priority="1" numLanes="1" speed="2.78" allow="army" oneway="0"/>
    <type id="highway.living_street" priority="2" numLanes="1" speed="2.78" disallow="tram rail_urban rail rail_electric rail_fast ship" oneway="0"/>
    <type id="highway.motorway" priority="14" numLanes="2" speed="39.44" allow="private emergency authority army vip passenger hov taxi bus coach delivery truck trailer motorcycle evehicle custom1 custom2" oneway="1"/>
    <type id="highway.motorway_link" priority="9" numLanes="1" speed="22.22" allow="private emergency authority army vip passenger hov taxi bus coach delivery truck trailer motorcycle evehicle custom1 custom2" oneway="1"/>
    <type id="highway.path" priority="1" numLanes="1" speed="5.56" allow="pedestrian bicycle" oneway="0" width="2.00"/>
    <type id="highway.pedestrian" priority="1" numLanes="1" speed="2.78" allow="pedestrian" oneway="1" width="2.00"/>
    <type id="highway.primary" priority="12" numLanes="2" speed="27.78" disallow="tram rail_urban rail rail_electric rail_fast ship" oneway="0"/>
    <type id="highway.primary_link" priority="7" numLanes="1" speed="22.22" disallow="tram rail_urban rail rail_electric rail_fast ship" oneway="0"/>
    <type id="highway.raceway" priority="15" numLanes="2" speed="83.33" allow="vip" oneway="0"/>
    <type id="highway.residential" priority="3" numLanes="1" speed="13.89" disallow="tram rail_urban rail rail_electric rail_fast ship" oneway="0"/>
    <type id="highway.secondary" priority="11" numLanes="1" speed="27.78" disallow="tram rail_urban rail rail_electric rail_fast ship" oneway="0"/>
    <type id="highway.secondary_link" priority="6" numLanes="1" speed="22.22" disallow="tram rail_urban rail rail_electric rail_fast ship" oneway="0"/>
    <type id="highway.service" priority="1" numLanes="1" speed="5.56" allow="pedestrian delivery bicycle" oneway="0"/>
    <type id="highway.stairs" priority="1" numLanes="1" speed="1.39" allow="pedestrian" oneway="1" width="2.00"/>
    <type id="highway.step" priority="1" numLanes="1" speed="1.39" allow="pedestrian" oneway="1" width="2.00"/>
    <type id="highway.steps" priority="1" numLanes="1" speed="1.39" allow="pedestrian" oneway="1" width="2.00"/>
    <type id="highway.tertiary" priority="10" numLanes="1" speed="22.22" disallow="tram rail_urban rail rail_electric rail_fast ship" oneway="0"/>
    <type id="highway.tertiary_link" priority="5" numLanes="1" speed="22.22" disallow="tram rail_urban rail rail_electric rail_fast ship" oneway="0"/>
    <type id="highway.track" priority="1" numLanes="1" speed="5.56" allow="pedestrian motorcycle moped bicycle" oneway="0"/>
    <type id="highway.trunk" priority="13" numLanes="2" speed="27.78" disallow="pedestrian bicycle tram rail_urban rail rail_electric rail_fast ship" oneway="0"/>
    <type id="highway.trunk_link" priority="8" numLanes="1" speed="22.22" disallow="pedestrian bicycle tram rail_urban rail rail_electric rail_fast ship" oneway="0"/>
    <type id="highway.unclassified" priority="4" numLanes="1" speed="13.89" disallow="tram rail_urban rail rail_electric rail_fast ship" oneway="0"/>
    <type id="highway.unsurfaced" priority="1" numLanes="1" speed="8.33" disallow="tram rail_urban rail rail_electric rail_fast ship" oneway="0"/>
    <type id="railway.highspeed" priority="21" numLanes="1" speed="69.44" allow="rail_fast" oneway="1"/>
    <type id="railway.light_rail" priority="19" numLanes="1" speed="27.78" allow="rail_urban" oneway="1"/>
    <type id="railway.preserved" priority="16" numLanes="1" speed="27.78" allow="rail" oneway="1"/>
    <type id="railway.rail" priority="20" numLanes="1" speed="44.44" allow="rail" oneway="1"/>
    <type id="railway.subway" priority="18" numLanes="1" speed="27.78" allow="rail_urban" oneway="1"/>
    <type id="railway.tram" priority="17" numLanes="1" speed="13.89" allow="tram" oneway="1"/>

    <edge id=":1043999222_0" function="internal">
        <lane id=":1043999222_0_0" index="0" allow="private emergency authority army vip passenger hov taxi bus coach delivery truck trailer motorcycle evehicle custom1 custom2" speed="25.00" length="3.37" shape="407.12,738.81 407.08,742.19"/>
        <lane id=":1043999222_0_1" index="1" allow="private emergency authority army vip passenger hov taxi bus coach delivery truck trailer motorcycle evehicle custom1 custom2" speed="25.00" length="3.37" shape="410.32,738.85 410.28,742.22"/>
        <lane id=":1043999222_0_2" index="2" allow="private emergency authority army vip passenger hov taxi bus coach delivery truck trailer motorcycle evehicle custom1 custom2" speed="25.00" length="3.37" shape="413.52,738.88 413.48,742.25"/>
    </edge>
    <edge id=":1043999222_3" function="internal">
        <lane id=":1043999222_3_0" index="0" allow="private emergency authority army vip passenger hov taxi bus coach delivery truck trailer motorcycle evehicle custom1 custom2" speed="19.45" length="3.40" shape="404.21,738.78 404.06,739.77 403.96,740.46 403.90,741.15 403.88,742.15"/>
    </edge>
    <edge id=":1110671973_0" function="internal">
        <lane id=":1110671973_0_0" index="0" allow="private emergency authority army vip passenger hov taxi bus coach delivery truck trailer motorcycle evehicle custom1 custom2" speed="16.67" length="17.91" shape="288.44,648.94 290.97,651.55 293.23,654.68 296.05,658.29 300.28,662.31"/>
    </edge>
    <edge id=":1110671973_1" function="internal">
        <lane id=":1110671973_1_0" index="0" allow="private emergency authority army vip passenger hov taxi bus coach delivery truck trailer motorcycle evehicle custom1 custom2" speed="15.28" length="17.31" shape="290.91,646.44 294.06,650.63 296.11,653.62 298.41,656.36 302.29,659.82"/>
        <lane id=":1110671973_1_1" index="1" allow="private emergency authority army vip passenger hov taxi bus coach delivery truck trailer motorcycle evehicle custom1 custom2" speed="15.28" length="17.31" shape="293.39,644.43 296.42,648.47 298.38,651.35 300.58,654.00 304.30,657.34"/>
    </edge>
    <edge id=":1110671974_0" function="internal">
        <lane id=":1110671974_0_0" index="0" allow="private emergency authority army vip passenger hov taxi bus coach delivery truck trailer motorcycle evehicle custom1 custom2" speed="15.28" length="3.90" shape="103.24,483.82 107.14,483.69"/>
    </edge>
    <edge id=":1110671974_1" function="internal">
        <lane id=":1110671974_1_0" index="0" allow="private emergency authority army vip passenger hov taxi bus coach delivery truck trailer motorcycle evehicle custom1 custom2" speed="16.67" length="2.99" shape="105.62,481.69 105.97,484.46"/>
        <lane id=":1110671974_1_1" index="1" allow="private emergency authority army vip passenger hov taxi bus coach delivery truck trailer motorcycle evehicle custom1 custom2" speed="16.67" length="2.99" shape="108.01,479.56 108.68,482.67"/>
    </edge>
    <edge id=":1110671986_0" function="internal">
        <lane id=":1110671986_0_0" index="0" allow="private emergency authority army vip passenger hov taxi bus coach delivery truck trailer motorcycle evehicle custom1 custom2" speed="19.45" length="3.14" shape="380.86,1073.43 380.34,1076.52"/>
    </edge>
    <edge id=":1110671986_1" function="internal">
        <lane id=":1110671986_1_0" index="0" allow="private emergency authority army vip passenger hov taxi bus coach delivery truck trailer motorcycle evehicle custom1 custom2" speed="25.00" length="2.84" shape="384.02,1074.07 383.50,1077.01"/>
        <lane id=":1110671986_1_1" index="1" allow="private emergency authority army vip passenger hov taxi bus coach delivery truck trailer motorcycle evehicle custom1 custom2" speed="25.00" length="2.84" shape="387.16,1074.70 386.66,1077.49"/>
        <lane id=":1110671986_1_2" index="2" allow="private emergency authority army vip passenger hov taxi bus coach delivery truck trailer motorcycle evehicle custom1 custom2" speed="25.00" length="2.84" shape="390.30,1075.34 389.83,1077.98"/>
    </edge>
    <edge id=":1110672005_0" function="internal">
        <lane id=":1110672005_0_0" index="0" allow="private emergency authority army vip passenger hov taxi bus coach delivery truck trailer motorcycle evehicle custom1 custom2" speed="13.89" length="16.36" shape="400.15,394.98 398.82,400.07 397.34,403.85 395.76,406.98 394.14,410.12"/>
    </edge>
    <edge id=":1110672005_1" function="internal">
        <lane id=":1110672005_1_0" index="0" allow="private emergency authority army vip passenger hov taxi bus coach delivery truck trailer motorcycle evehicle custom1 custom2" speed="13.89" length="16.33" shape="400.15,394.98 399.31,399.78 399.04,403.11 398.90,406.47 398.46,411.33"/>
        <lane id=":1110672005_1_1" index="1" allow="private emergency authority army vip passenger hov taxi bus coach delivery truck trailer motorcycle evehicle custom1 custom2" speed="13.89" length="16.33" shape="403.28,395.63 402.46,400.35 402.20,403.63 402.07,406.93 401.63,411.71"/>
    </edge>
    <edge id=":1110672017_0" function="internal">
        <lane id=":1110672017_0_0" index="0" allow="private emergency authority army vip passenger hov taxi bus coach delivery truck trailer motorcycle evehicle custom1 custom2" speed="13.89" length="9.37" shape="603.57,796.43 602.65,793.90 602.57,792.02 602.94,790.06 603.35,787.28"/>
        <lane id=":1110672017_0_1" index="1" allow="private emergency authority army vip passenger hov taxi bus coach delivery truck trailer motorcycle evehicle custom1 custom2" speed="13.89" length="11.07" shape="600.69,797.82 599.55,794.83 599.38,792.61 599.72,790.29 600.16,787.02"/>
    </edge>
    <edge id=":1110672017_2" function="internal">
        <lane id=":1110672017_2_0" index="0" allow="private emergency authority army vip passenger hov taxi bus coach delivery truck trailer motorcycle evehicle custom1 custom2" speed="13.89" length="11.82" shape="597.81,799.20 596.79,795.82 596.88,793.17 597.07,790.64 596.38,787.63"/>
    </edge>
    <edge id=":1110672033_0" function="internal">
        <lane id=":1110672033_0_0" index="0" allow="private emergency authority army vip passenger hov taxi bus coach delivery truck trailer motorcycle evehicle custom1 custom2" speed="25.00" length="3.05" shape="443.21,230.38 443.27,227.30"/>
        <lane id=":1110672033_0_1" index="1" allow="private emergency authority army vip passenger hov taxi bus coach delivery truck trailer motorcycle evehicle custom1 custom2" speed="25.00" length="3.05" shape="440.01,230.30 440.07,227.25"/>
        <lane id=":1110672033_0_2" index="2" allow="private emergency authority army vip passenger hov taxi bus coach delivery truck trailer motorcycle evehicle custom1 custom2" speed="25.00" length="3.05" shape="436.81,230.21 436.87,227.20"/>
    </edge>
    <edge id=":1110672033_3" function="internal">
        <lane id=":1110672033_3_0" index="0" allow="private emergency authority army vip passenger hov taxi bus coach delivery truck trailer motorcycle evehicle custom1 custom2" speed="19.45" length="3.11" shape="446.39,230.46 446.47,227.35"/>
    </edge>
    <edge id=":1110672097_0" function="internal">
        <lane id=":1110672097_0_0" index="0" allow="private emergency authority army vip passenger hov taxi bus coach delivery truck trailer motorcycle evehicle custom1 custom2" speed="20.84" length="0.39" shape="574.52,877.93 574.73,878.10"/>
        <lane id=":1110672097_0_1" index="1" allow="private emergency authority army vip passenger hov taxi bus coach delivery truck trailer motorcycle evehicle custom1 custom2" speed="20.84" length="0.39" shape="576.48,875.40 576.79,875.65"/>
        <lane id=":1110672097_0_2" index="2" allow="private emergency authority army vip passenger hov taxi bus coach delivery truck trailer motorcycle evehicle custom1 custom2" speed="20.84" length="0.39" shape="578.44,872.87 578.85,873.20"/>
    </edge>
    <edge id=":1110672137_0" function="internal">
        <lane id=":1110672137_0_0" index="0" allow="private emergency authority army vip passenger hov taxi bus coach delivery truck trailer motorcycle evehicle custom1 custom2" speed="13.89" length="21.47" shape="433.85,977.10 434.94,972.50 436.98,966.89 439.27,961.35 441.16,956.96"/>
    </edge>
    <edge id=":1110672137_1" function="internal">
        <lane id=":1110672137_1_0" index="0" allow="private emergency authority army vip passenger hov taxi bus coach delivery truck trailer motorcycle evehicle custom1 custom2" speed="13.89" length="21.42" shape="433.85,977.10 434.51,972.40 435.56,966.53 436.77,960.70 437.92,956.09"/>
    </edge>
    <edge id=":1110672164_0" function="internal">
        <lane id=":1110672164_0_0" index="0" allow="private emergency authority army vip passenger hov taxi bus coach delivery truck trailer motorcycle evehicle custom1 custom2" speed="19.45" length="2.99" shape="904.13,1117.62 906.78,1119.01"/>
    </edge>
    <edge id=":1110672164_1" function="internal">
        <lane id=":1110672164_1_0" index="0" allow="private emergency authority army vip passenger hov taxi bus coach delivery truck trailer motorcycle evehicle custom1 custom2" speed="25.00" length="2.26" shape="905.83,1114.87 906.49,1115.28 906.96,1115.54 907.43,1115.78 908.14,1116.11"/>
        <lane id=":1110672164_1_1" index="1" allow="private emergency authority army vip passenger hov taxi bus coach delivery truck trailer motorcycle evehicle custom1 custom2" speed="25.00" length="2.26" shape="907.51,1112.14 908.08,1112.49 908.48,1112.72 908.89,1112.93 909.50,1113.22"/>
        <lane id=":1110672164_1_2" index="2" allow="private emergency authority army vip passenger hov taxi bus coach delivery truck trailer motorcycle evehicle custom1 custom2" speed="25.00" length="2.26" shape="909.19,1109.42 909.67,1109.71 910.00,1109.91 910.34,1110.08 910.85,1110.32"/>
    </edge>
    <edge id=":1110672206_0" function="internal">
        <lane id=":1110672206_0_0" index="0" allow="private emergency authority army vip passenger hov taxi bus coach delivery truck trailer motorcycle evehicle custom1 custom2" speed="13.89" length="19.40" shape="527.96,629.67 524.18,625.32 522.07,621.91 519.88,618.58 515.87,614.48"/>
        <lane id=":1110672206_0_1" index="1" allow="private emergency authority army vip passenger hov taxi bus coach delivery truck trailer motorcycle evehicle custom1 custom2" speed="13.89" length="19.40" shape="525.72,631.96 521.98,627.65 519.90,624.26 517.74,620.96 513.77,616.90"/>
    </edge>
    <edge id=":1110672206_2" function="internal">
        <lane id=":1110672206_2_0" index="0" allow="private emergency authority army vip passenger hov taxi bus coach delivery truck trailer motorcycle evehicle custom1 custom2" speed="13.89" length="18.87" shape="523.13,634.21 521.09,631.05 518.96,627.56 516.05,623.67 511.68,619.33"/>
    </edge>
    <edge id=":1110672264_0" function="internal">
        <lane id=":1110672264_0_0" index="0" allow="private emergency authority army vip passenger hov taxi bus coach delivery truck trailer motorcycle evehicle custom1 custom2" speed="25.00" length="3.15" shape="439.50,534.48 439.56,531.28"/>
        <lane id=":1110672264_0_1" index="1" allow="private emergency authority army vip passenger hov taxi bus coach delivery truck trailer motorcycle evehicle custom1 custom2" speed="25.00" length="3.15" shape="436.30,534.41 436.36,531.25"/>
        <lane id=":1110672264_0_2" index="2" allow="private emergency authority army vip passenger hov taxi bus coach delivery truck trailer motorcycle evehicle custom1 custom2" speed="25.00" length="3.15" shape="433.10,534.34 433.16,531.22"/>
    </edge>
    <edge id=":1110672264_3" function="internal">
        <lane id=":1110672264_3_0" index="0" allow="private emergency authority army vip passenger hov taxi bus coach delivery truck trailer motorcycle evehicle custom1 custom2" speed="19.45" length="3.26" shape="442.35,534.54 442.54,533.59 442.66,532.94 442.73,532.28 442.76,531.31"/>
    </edge>
    <edge id=":1110672501_0" function="internal">
        <lane id=":1110672501_0_0" index="0" allow="private emergency authority army vip passenger hov taxi bus coach delivery truck trailer motorcycle evehicle custom1 custom2" speed="13.89" length="8.01" shape="560.01,682.70 559.28,680.44 559.11,678.77 558.91,677.13 558.05,674.93"/>
        <lane id=":1110672501_0_1" index="1" allow="private emergency authority army vip passenger hov taxi bus coach delivery truck trailer motorcycle evehicle custom1 custom2" speed="13.89" length="8.01" shape="560.01,682.70 558.84,680.68 557.69,679.51 556.50,678.36 555.21,676.41"/>
    </edge>
    <edge id=":1483254877_0" function="internal">
        <lane id=":1483254877_0_0" index="0" allow="private emergency authority army vip passenger hov taxi bus coach delivery truck trailer motorcycle evehicle custom1 custom2" speed="13.89" length="7.77" shape="442.90,288.78 443.01,286.52 443.51,285.00 444.07,283.48 444.41,281.22"/>
    </edge>
    <edge id=":1483254879_0" function="internal">
        <lane id=":1483254879_0_0" index="0" allow="private emergency authority army vip passenger hov taxi bus coach delivery truck trailer motorcycle evehicle custom1 custom2" speed="19.45" length="3.74" shape="411.18,316.82 411.28,320.70"/>
        <lane id=":1483254879_0_1" index="1" allow="private emergency authority army vip passenger hov taxi bus coach delivery truck trailer motorcycle evehicle custom1 custom2" speed="19.45" length="3.74" shape="414.38,316.91 414.48,320.51"/>
    </edge>
    <edge id=":1483254879_2" function="internal">
        <lane id=":1483254879_2_0" index="0" allow="private emergency authority army vip passenger hov taxi bus coach delivery truck trailer motorcycle evehicle custom1 custom2" speed="25.00" length="3.63" shape="417.58,317.00 417.30,318.07 416.74,318.71 416.19,319.35 415.93,320.42"/>
        <lane id=":1483254879_2_1" index="1" allow="private emergency authority army vip passenger hov taxi bus coach delivery truck trailer motorcycle evehicle custom1 custom2" speed="25.00" length="3.63" shape="420.78,317.08 420.50,318.08 419.94,318.66 419.39,319.24 419.13,320.23"/>
        <lane id=":1483254879_2_2" index="2" allow="private emergency authority army vip passenger hov taxi bus coach delivery truck trailer motorcycle evehicle custom1 custom2" speed="25.00" length="3.63" shape="423.98,317.17 422.33,320.04"/>
    </edge>
    <edge id=":4504567547_0" function="internal">
        <lane id=":4504567547_0_0" index="0" allow="private emergency authority army vip passenger hov taxi bus coach delivery truck trailer motorcycle evehicle custom1 custom2" speed="16.67" length="7.95" shape="164.47,540.84 165.92,542.68 166.63,544.17 167.38,545.62 168.93,547.36"/>
    </edge>
    <edge id=":4734593259_0" function="internal">
        <lane id=":4734593259_0_0" index="0" allow="private emergency authority army vip passenger hov taxi bus coach delivery truck trailer motorcycle evehicle custom1 custom2" speed="13.89" length="0.10" shape="440.20,582.27 440.20,582.27"/>
    </edge>
    <edge id=":4736361108_0" function="internal">
        <lane id=":4736361108_0_0" index="0" allow="private emergency authority army vip passenger hov taxi bus coach delivery truck trailer motorcycle evehicle custom1 custom2" speed="25.00" length="8.00" shape="406.81,766.85 406.75,774.86"/>
        <lane id=":4736361108_0_1" index="1" allow="private emergency authority army vip passenger hov taxi bus coach delivery truck trailer motorcycle evehicle custom1 custom2" speed="25.00" length="8.00" shape="410.01,766.88 409.95,774.88"/>
        <lane id=":4736361108_0_2" index="2" allow="private emergency authority army vip passenger hov taxi bus coach delivery truck trailer motorcycle evehicle custom1 custom2" speed="25.00" length="8.00" shape="413.21,766.92 413.15,774.90"/>
    </edge>
    <edge id=":480453614-AddedOffRampNode_0" function="internal">
        <lane id=":480453614-AddedOffRampNode_0_0" index="0" allow="private emergency authority army vip passenger hov taxi bus coach delivery truck trailer motorcycle evehicle custom1 custom2" speed="25.00" length="8.16" shape="415.18,214.60 414.67,217.06 413.56,218.59 412.45,220.12 411.94,222.58"/>
        <lane id=":480453614-AddedOffRampNode_0_1" index="1" allow="private emergency authority army vip passenger hov taxi bus coach delivery truck trailer motorcycle evehicle custom1 custom2" speed="25.00" length="8.16" shape="415.18,214.60 415.14,222.60"/>
        <lane id=":480453614-AddedOffRampNode_0_2" index="2" allow="private emergency authority army vip passenger hov taxi bus coach delivery truck trailer motorcycle evehicle custom1 custom2" speed="25.00" length="8.16" shape="418.38,214.61 418.34,222.61"/>
        <lane id=":480453614-AddedOffRampNode_0_3" index="3" allow="private emergency authority army vip passenger hov taxi bus coach delivery truck trailer motorcycle evehicle custom1 custom2" speed="25.00" length="8.16" shape="421.58,214.63 421.54,222.63"/>
        <lane id=":480453614-AddedOffRampNode_0_4" index="4" allow="private emergency authority army vip passenger hov taxi bus coach delivery truck trailer motorcycle evehicle custom1 custom2" speed="25.00" length="8.16" shape="424.78,214.64 424.74,222.64"/>
    </edge>
    <edge id=":480455206-AddedOnRampNode_0" function="internal">
        <lane id=":480455206-AddedOnRampNode_0_0" index="0" allow="private emergency authority army vip passenger hov taxi bus coach delivery truck trailer motorcycle evehicle custom1 custom2" speed="25.00" length="8.00" shape="440.41,436.39 440.49,428.39"/>
        <lane id=":480455206-AddedOnRampNode_0_1" index="1" allow="private emergency authority army vip passenger hov taxi bus coach delivery truck trailer motorcycle evehicle custom1 custom2" speed="25.00" length="8.00" shape="437.21,436.36 437.29,428.36"/>
        <lane id=":480455206-AddedOnRampNode_0_2" index="2" allow="private emergency authority army vip passenger hov taxi bus coach delivery truck trailer motorcycle evehicle custom1 custom2" speed="25.00" length="8.00" shape="434.01,436.33 434.09,428.33"/>
    </edge>
    <edge id=":480664346#1-AddedOnRampNode_0" function="internal">
        <lane id=":480664346#1-AddedOnRampNode_0_0" index="0" allow="private emergency authority army vip passenger hov taxi bus coach delivery truck trailer motorcycle evehicle custom1 custom2" speed="25.00" length="8.00" shape="365.18,1169.37 363.17,1177.11"/>
        <lane id=":480664346#1-AddedOnRampNode_0_1" index="1" allow="private emergency authority army vip passenger hov taxi bus coach delivery truck trailer motorcycle evehicle custom1 custom2" speed="25.00" length="8.00" shape="368.27,1170.17 366.27,1177.91"/>
        <lane id=":480664346#1-AddedOnRampNode_0_2" index="2" allow="private emergency authority army vip passenger hov taxi bus coach delivery truck trailer motorcycle evehicle custom1 custom2" speed="25.00" length="8.00" shape="371.37,1170.97 369.36,1178.72"/>
    </edge>
    <edge id=":6117604341_0" function="internal">
        <lane id=":6117604341_0_0" index="0" allow="private emergency authority army vip passenger hov taxi bus coach delivery truck trailer motorcycle evehicle custom1 custom2" speed="16.67" length="8.21" shape="74.09,448.75 75.50,450.71 76.16,452.27 76.82,453.83 78.22,455.79"/>
        <lane id=":6117604341_0_1" index="1" allow="private emergency authority army vip passenger hov taxi bus coach delivery truck trailer motorcycle evehicle custom1 custom2" speed="16.67" length="8.21" shape="74.09,448.75 75.88,450.37 77.35,451.20 78.83,452.03 80.61,453.65"/>
        <lane id=":6117604341_0_2" index="2" allow="private emergency authority army vip passenger hov taxi bus coach delivery truck trailer motorcycle evehicle custom1 custom2" speed="16.67" length="8.21" shape="76.48,446.62 78.26,448.24 79.74,449.07 81.22,449.90 83.00,451.52"/>
    </edge>
    <edge id=":95840977#1-AddedOnRampNode_0" function="internal">
        <lane id=":95840977#1-AddedOnRampNode_0_0" index="0" allow="private emergency authority army vip passenger hov taxi bus coach delivery truck trailer motorcycle evehicle custom1 custom2" speed="25.00" length="8.00" shape="994.24,1156.05 1001.58,1159.24"/>
        <lane id=":95840977#1-AddedOnRampNode_0_1" index="1" allow="private emergency authority army vip passenger hov taxi bus coach delivery truck trailer motorcycle evehicle custom1 custom2" speed="25.00" length="8.00" shape="995.52,1153.12 1002.86,1156.30"/>
        <lane id=":95840977#1-AddedOnRampNode_0_2" index="2" allow="private emergency authority army vip passenger hov taxi bus coach delivery truck trailer motorcycle evehicle custom1 custom2" speed="25.00" length="8.00" shape="996.80,1150.18 1004.13,1153.37"/>
    </edge>

    <edge id="134991379" from="1483254879" to="1043999222" name="Bukit Timah Expressway" priority="14" type="highway.motorway" spreadType="center" shape="419.14,318.61 419.01,353.87 417.84,504.66 413.37,576.89 411.44,649.65 410.62,714.94 410.29,740.97">
        <lane id="134991379_0" index="0" allow="private emergency authority army vip passenger hov taxi bus coach delivery truck trailer motorcycle evehicle custom1 custom2" speed="25.00" length="418.79" shape="415.93,320.42 415.81,353.85 414.64,504.55 410.17,576.75 408.24,649.59 407.42,714.90 407.12,738.81">
            <param key="origId" value="134991379 723143335 480455204 480455205 480664347"/>
        </lane>
        <lane id="134991379_1" index="1" allow="private emergency authority army vip passenger hov taxi bus coach delivery truck trailer motorcycle evehicle custom1 custom2" speed="25.00" length="418.79" shape="419.13,320.23 419.01,353.87 417.84,504.66 413.37,576.89 411.44,649.65 410.62,714.94 410.32,738.85">
            <param key="origId" value="134991379 723143335 480455204 480455205 480664347"/>
        </lane>
        <lane id="134991379_2" index="2" allow="private emergency authority army vip passenger hov taxi bus coach delivery truck trailer motorcycle evehicle custom1 custom2" speed="25.00" length="418.79" shape="422.33,320.04 422.21,353.89 421.04,504.77 416.57,577.03 414.64,649.71 413.82,714.98 413.52,738.88">
            <param key="origId" value="134991379 723143335 480455204 480455205 480664347"/>
        </lane>
        <param key="ref" value="BKE"/>
    </edge>
    <edge id="134991384" from="1483254877" to="1110672033" priority="9" type="highway.motorway_link" spreadType="center" shape="444.26,284.95 446.45,228.84">
        <lane id="134991384_0" index="0" allow="private emergency authority army vip passenger hov taxi bus coach delivery truck trailer motorcycle evehicle custom1 custom2" speed="13.89" length="50.79" shape="444.41,281.22 446.39,230.46">
            <param key="origId" value="134991384"/>
        </lane>
    </edge>
    <edge id="134991385" from="1110672005" to="1110672123" name="Bukit Timah Expressway" priority="9" type="highway.motorway_link" spreadType="center" shape="402.36,392.20 396.96,404.30 390.66,417.28 384.79,426.33 377.30,437.41 368.97,446.27 360.35,453.80 351.16,459.59 341.34,463.38 332.69,466.31 321.98,468.79 310.52,470.40 236.39,475.96 220.84,476.55 207.62,474.95 189.86,470.73 169.74,462.72 152.34,452.00 134.73,438.44 74.34,388.01 52.22,373.66">
        <lane id="134991385_0" index="0" allow="private emergency authority army vip passenger hov taxi bus coach delivery truck trailer motorcycle evehicle custom1 custom2" speed="13.89" length="362.79" shape="394.14,410.12 390.66,417.28 384.79,426.33 377.30,437.41 368.97,446.27 360.35,453.80 351.16,459.59 341.34,463.38 332.69,466.31 321.98,468.79 310.52,470.40 236.39,475.96 220.84,476.55 207.62,474.95 189.86,470.73 169.74,462.72 152.34,452.00 134.73,438.44 82.39,394.74">
            <param key="origId" value="134991385 95840929"/>
        </lane>
    </edge>