<?xml version="1.0" encoding="UTF-8"?>

<!-- generated on 2023-07-12 11:11:42 by Eclipse SUMO netconvert Version 1.17.0
<configuration xmlns:xsi="http://www.w3.org/2001/XMLSchema-instance" xsi:noNamespaceSchemaLocation="http://sumo.dlr.de/xsd/netconvertConfiguration.xsd">

    <input>
        <sumo-net-file value="osm.net.xml.gz"/>
    </input>

    <output>
        <output-file value="osm.net.xml"/>
        <output.street-names value="true"/>
    </output>

    <processing>
        <geometry.min-radius.fix.railways value="false"/>
        <geometry.max-grade.fix value="false"/>
        <offset.disable-normalization value="true"/>
        <lefthand value="0"/>
    </processing>

    <junctions>
        <no-turnarounds value="true"/>
        <junctions.corner-detail value="5"/>
        <junctions.limit-turn-speed value="5.50"/>
        <rectangular-lane-cut value="0"/>
    </junctions>

    <pedestrian>
        <walkingareas value="0"/>
    </pedestrian>

</configuration>
-->

<net version="1.16" junctionCornerDetail="5" limitTurnSpeed="5.50" xmlns:xsi="http://www.w3.org/2001/XMLSchema-instance" xsi:noNamespaceSchemaLocation="http://sumo.dlr.de/xsd/net_file.xsd">

    <location netOffset="-363251.99,-153099.75" convBoundary="0.00,0.00,597.78,1926.91" origBoundary="103.770815,1.384820,103.776187,1.402249" projParameter="+proj=utm +zone=48 +ellps=WGS84 +datum=WGS84 +units=m +no_defs"/>

    <type id="highway.bridleway" priority="1" numLanes="1" speed="2.78" allow="pedestrian" oneway="1" width="2.00"/>
    <type id="highway.bus_guideway" priority="1" numLanes="1" speed="27.78" allow="bus" oneway="1"/>
    <type id="highway.cycleway" priority="1" numLanes="1" speed="5.56" allow="bicycle" oneway="0" width="1.00"/>
    <type id="highway.footway" priority="1" numLanes="1" speed="2.78" allow="pedestrian" oneway="1" width="2.00"/>
    <type id="highway.ford" priority="1" numLanes="1" speed="2.78" allow="army" oneway="0"/>
    <type id="highway.living_street" priority="2" numLanes="1" speed="2.78" disallow="tram rail_urban rail rail_electric rail_fast ship" oneway="0"/>
    <type id="highway.motorway" priority="14" numLanes="2" speed="39.44" allow="private emergency authority army vip passenger hov taxi bus coach delivery truck trailer motorcycle evehicle custom1 custom2" oneway="1"/>
    <type id="highway.motorway_link" priority="9" numLanes="1" speed="22.22" allow="private emergency authority army vip passenger hov taxi bus coach delivery truck trailer motorcycle evehicle custom1 custom2" oneway="1"/>
    <type id="highway.path" priority="1" numLanes="1" speed="5.56" allow="pedestrian bicycle" oneway="0" width="2.00"/>
    <type id="highway.pedestrian" priority="1" numLanes="1" speed="2.78" allow="pedestrian" oneway="1" width="2.00"/>
    <type id="highway.primary" priority="12" numLanes="2" speed="27.78" disallow="tram rail_urban rail rail_electric rail_fast ship" oneway="0"/>
    <type id="highway.primary_link" priority="7" numLanes="1" speed="22.22" disallow="tram rail_urban rail rail_electric rail_fast ship" oneway="0"/>
    <type id="highway.raceway" priority="15" numLanes="2" speed="83.33" allow="vip" oneway="0"/>
    <type id="highway.residential" priority="3" numLanes="1" speed="13.89" disallow="tram rail_urban rail rail_electric rail_fast ship" oneway="0"/>
    <type id="highway.secondary" priority="11" numLanes="1" speed="27.78" disallow="tram rail_urban rail rail_electric rail_fast ship" oneway="0"/>
    <type id="highway.secondary_link" priority="6" numLanes="1" speed="22.22" disallow="tram rail_urban rail rail_electric rail_fast ship" oneway="0"/>
    <type id="highway.service" priority="1" numLanes="1" speed="5.56" allow="pedestrian delivery bicycle" oneway="0"/>
    <type id="highway.stairs" priority="1" numLanes="1" speed="1.39" allow="pedestrian" oneway="1" width="2.00"/>
    <type id="highway.step" priority="1" numLanes="1" speed="1.39" allow="pedestrian" oneway="1" width="2.00"/>
    <type id="highway.steps" priority="1" numLanes="1" speed="1.39" allow="pedestrian" oneway="1" width="2.00"/>
    <type id="highway.tertiary" priority="10" numLanes="1" speed="22.22" disallow="tram rail_urban rail rail_electric rail_fast ship" oneway="0"/>
    <type id="highway.tertiary_link" priority="5" numLanes="1" speed="22.22" disallow="tram rail_urban rail rail_electric rail_fast ship" oneway="0"/>
    <type id="highway.track" priority="1" numLanes="1" speed="5.56" allow="pedestrian motorcycle moped bicycle" oneway="0"/>
    <type id="highway.trunk" priority="13" numLanes="2" speed="27.78" disallow="pedestrian bicycle tram rail_urban rail rail_electric rail_fast ship" oneway="0"/>
    <type id="highway.trunk_link" priority="8" numLanes="1" speed="22.22" disallow="pedestrian bicycle tram rail_urban rail rail_electric rail_fast ship" oneway="0"/>
    <type id="highway.unclassified" priority="4" numLanes="1" speed="13.89" disallow="tram rail_urban rail rail_electric rail_fast ship" oneway="0"/>
    <type id="highway.unsurfaced" priority="1" numLanes="1" speed="8.33" disallow="tram rail_urban rail rail_electric rail_fast ship" oneway="0"/>
    <type id="railway.highspeed" priority="21" numLanes="1" speed="69.44" allow="rail_fast" oneway="1"/>
    <type id="railway.light_rail" priority="19" numLanes="1" speed="27.78" allow="rail_urban" oneway="1"/>
    <type id="railway.preserved" priority="16" numLanes="1" speed="27.78" allow="rail" oneway="1"/>
    <type id="railway.rail" priority="20" numLanes="1" speed="44.44" allow="rail" oneway="1"/>
    <type id="railway.subway" priority="18" numLanes="1" speed="27.78" allow="rail_urban" oneway="1"/>
    <type id="railway.tram" priority="17" numLanes="1" speed="13.89" allow="tram" oneway="1"/>

    <edge id=":158003373_0" function="internal">
        <lane id=":158003373_0_0" index="0" allow="private emergency authority army vip passenger hov taxi bus coach delivery truck trailer motorcycle evehicle custom1 custom2" speed="19.45" length="2.31" shape="414.83,598.68 416.54,596.90"/>
        <lane id=":158003373_0_1" index="1" allow="private emergency authority army vip passenger hov taxi bus coach delivery truck trailer motorcycle evehicle custom1 custom2" speed="19.45" length="2.31" shape="418.03,598.64 419.71,597.29"/>
    </edge>
    <edge id=":158003373_2" function="internal">
        <lane id=":158003373_2_0" index="0" allow="private emergency authority army vip passenger hov taxi bus coach delivery truck trailer motorcycle evehicle custom1 custom2" speed="25.00" length="2.63" shape="406.80,598.77 407.01,595.72"/>
        <lane id=":158003373_2_1" index="1" allow="private emergency authority army vip passenger hov taxi bus coach delivery truck trailer motorcycle evehicle custom1 custom2" speed="25.00" length="2.63" shape="410.01,598.74 410.19,596.11"/>
        <lane id=":158003373_2_2" index="2" allow="private emergency authority army vip passenger hov taxi bus coach delivery truck trailer motorcycle evehicle custom1 custom2" speed="25.00" length="2.63" shape="413.21,598.70 413.36,596.50"/>
    </edge>
    <edge id=":158014654_0" function="internal">
        <lane id=":158014654_0_0" index="0" allow="private emergency authority army vip passenger hov taxi bus coach delivery truck trailer motorcycle evehicle custom1 custom2" speed="25.00" length="67.76" shape="354.65,970.08 348.84,1037.53"/>
        <lane id=":158014654_0_1" index="1" allow="private emergency authority army vip passenger hov taxi bus coach delivery truck trailer motorcycle evehicle custom1 custom2" speed="25.00" length="67.76" shape="351.46,969.80 345.65,1037.31"/>
        <lane id=":158014654_0_2" index="2" allow="private emergency authority army vip passenger hov taxi bus coach delivery truck trailer motorcycle evehicle custom1 custom2" speed="25.00" length="67.76" shape="348.27,969.53 342.46,1037.09"/>
    </edge>
    <edge id=":158014654_3" function="internal">
        <lane id=":158014654_3_0" index="0" allow="private emergency authority army vip passenger hov taxi bus coach delivery truck trailer motorcycle evehicle custom1 custom2" speed="19.45" length="67.73" shape="345.01,969.33 339.27,1036.87"/>
        <lane id=":158014654_3_1" index="1" allow="private emergency authority army vip passenger hov taxi bus coach delivery truck trailer motorcycle evehicle custom1 custom2" speed="19.45" length="67.73" shape="341.81,969.21 336.08,1036.65"/>
    </edge>
    <edge id=":158043131_0" function="internal">
        <lane id=":158043131_0_0" index="0" allow="private emergency authority army vip passenger hov taxi bus coach delivery truck trailer motorcycle evehicle custom1 custom2" speed="13.89" length="7.99" shape="447.57,599.16 445.24,599.25 443.67,599.72 442.09,600.24 439.75,600.49"/>
    </edge>
    <edge id=":158043151_0" function="internal">
        <lane id=":158043151_0_0" index="0" allow="private emergency authority army vip passenger hov taxi bus coach delivery truck trailer motorcycle evehicle custom1 custom2" speed="19.45" length="8.21" shape="381.13,602.07 378.74,602.40 377.16,603.01 375.57,603.61 373.18,603.94"/>
        <lane id=":158043151_0_1" index="1" allow="private emergency authority army vip passenger hov taxi bus coach delivery truck trailer motorcycle evehicle custom1 custom2" speed="19.45" length="8.21" shape="381.13,602.07 378.72,601.90 377.10,601.41 375.48,600.91 373.08,600.74"/>
    </edge>
    <edge id=":158052803_0" function="internal">
        <lane id=":158052803_0_0" index="0" allow="private emergency authority army vip passenger hov taxi bus coach delivery truck trailer motorcycle evehicle custom1 custom2" speed="19.45" length="0.28" shape="378.51,613.98 378.83,613.97"/>
        <lane id=":158052803_0_1" index="1" allow="private emergency authority army vip passenger hov taxi bus coach delivery truck trailer motorcycle evehicle custom1 custom2" speed="19.45" length="0.28" shape="378.62,617.17 378.88,617.17"/>
    </edge>
    <edge id=":478876321-AddedOnRampNode_0" function="internal">
        <lane id=":478876321-AddedOnRampNode_0_0" index="0" allow="private emergency authority army vip passenger hov taxi bus coach delivery truck trailer motorcycle evehicle custom1 custom2" speed="25.00" length="8.00" shape="338.98,1133.08 338.47,1141.06"/>
        <lane id=":478876321-AddedOnRampNode_0_1" index="1" allow="private emergency authority army vip passenger hov taxi bus coach delivery truck trailer motorcycle evehicle custom1 custom2" speed="25.00" length="8.00" shape="335.79,1132.86 335.28,1140.84"/>
        <lane id=":478876321-AddedOnRampNode_0_2" index="2" allow="private emergency authority army vip passenger hov taxi bus coach delivery truck trailer motorcycle evehicle custom1 custom2" speed="25.00" length="8.00" shape="332.60,1132.64 332.08,1140.62"/>
        <lane id=":478876321-AddedOnRampNode_0_3" index="3" allow="private emergency authority army vip passenger hov taxi bus coach delivery truck trailer motorcycle evehicle custom1 custom2" speed="25.00" length="8.00" shape="329.40,1132.42 328.89,1140.40"/>
    </edge>
    <edge id=":5971965758_0" function="internal">
        <lane id=":5971965758_0_0" index="0" allow="private emergency authority army vip passenger hov taxi bus coach delivery truck trailer motorcycle evehicle custom1 custom2" speed="25.00" length="8.21" shape="234.37,607.32 231.99,607.61 230.40,608.19 228.82,608.77 226.44,609.08"/>
        <lane id=":5971965758_0_1" index="1" allow="private emergency authority army vip passenger hov taxi bus coach delivery truck trailer motorcycle evehicle custom1 custom2" speed="25.00" length="8.21" shape="234.32,604.12 231.93,604.41 230.34,604.99 228.75,605.57 226.35,605.88"/>
        <lane id=":5971965758_0_2" index="2" allow="private emergency authority army vip passenger hov taxi bus coach delivery truck trailer motorcycle evehicle custom1 custom2" speed="25.00" length="8.21" shape="234.32,604.12 231.91,603.91 230.30,603.39 228.68,602.87 226.27,602.69"/>
    </edge>
    <edge id=":631885735-AddedOnRampNode_0" function="internal">
        <lane id=":631885735-AddedOnRampNode_0_0" index="0" allow="private emergency authority army vip passenger hov taxi bus coach delivery truck trailer motorcycle evehicle custom1 custom2" speed="25.00" length="8.00" shape="424.91,502.13 425.88,494.19"/>
        <lane id=":631885735-AddedOnRampNode_0_1" index="1" allow="private emergency authority army vip passenger hov taxi bus coach delivery truck trailer motorcycle evehicle custom1 custom2" speed="25.00" length="8.00" shape="428.08,502.51 429.05,494.57"/>
        <lane id=":631885735-AddedOnRampNode_0_2" index="2" allow="private emergency authority army vip passenger hov taxi bus coach delivery truck trailer motorcycle evehicle custom1 custom2" speed="25.00" length="8.00" shape="431.26,502.90 432.23,494.96"/>
    </edge>

    <edge id="15772713" from="158046300" to="158043131" priority="9" type="highway.motorway_link" spreadType="center" shape="357.47,1295.21 362.17,1283.32 363.90,1275.81 366.68,1229.87 377.89,1102.89 384.59,1064.02 389.17,1039.42 402.81,1007.60 426.70,977.74 458.86,950.72 479.97,934.05 533.15,893.90 560.57,867.01 576.08,844.03 587.26,819.57 591.94,803.78 595.15,787.85 597.30,772.50 597.78,757.03 594.36,727.81 586.82,703.66 579.06,687.14 569.51,670.74 550.03,647.72 529.46,629.92 515.38,620.76 499.84,613.29 486.05,607.88 472.47,603.95 458.00,601.52 443.61,600.48">
        <lane id="15772713_0" index="0" allow="private emergency authority army vip passenger hov taxi bus coach delivery truck trailer motorcycle evehicle custom1 custom2" speed="13.89" length="821.86" shape="363.47,1256.48 365.08,1229.75 376.30,1102.68 383.02,1063.74 387.63,1038.95 401.42,1006.77 425.55,976.62 457.85,949.48 478.99,932.78 532.10,892.69 559.33,865.98 574.68,843.24 585.76,819.01 590.39,803.39 593.57,787.58 595.70,772.36 596.18,757.10 592.79,728.14 585.33,704.24 577.64,687.88 568.20,671.67 548.89,648.85 528.50,631.20 514.59,622.16 499.20,614.76 485.53,609.40 472.11,605.51 457.81,603.11 447.34,602.35">
            <param key="origId" value="15772713"/>
        </lane>
        <lane id="15772713_1" index="1" allow="private emergency authority army vip passenger hov taxi bus coach delivery truck trailer motorcycle evehicle custom1 custom2" speed="13.89" length="821.86" shape="366.60,1257.68 368.28,1229.99 379.48,1103.10 386.16,1064.30 390.71,1039.89 404.20,1008.43 427.85,978.86 459.87,951.96 480.95,935.32 534.20,895.11 561.81,868.04 577.48,844.82 588.76,820.13 593.49,804.17 596.73,788.12 598.90,772.64 599.38,756.96 595.93,727.48 588.31,703.08 580.48,686.40 570.82,669.81 551.17,646.59 530.42,628.64 516.17,619.36 500.48,611.82 486.57,606.36 472.83,602.39 458.19,599.93 447.57,599.16">
            <param key="origId" value="15772713"/>
        </lane>
    </edge>
    <edge id="15773055" from="6751676174" to="158052803" priority="9" type="highway.motorway_link" spreadType="center" shape="84.44,625.57 243.47,620.18 309.16,617.99 378.71,615.57">
        <lane id="15773055_0" index="0" allow="private emergency authority army vip passenger hov taxi bus coach delivery truck trailer motorcycle evehicle custom1 custom2" speed="25.00" length="294.30" shape="84.39,623.97 243.42,618.58 309.11,616.39 378.51,613.98">
            <param key="origId" value="15773055"/>
        </lane>
        <lane id="15773055_1" index="1" allow="private emergency authority army vip passenger hov taxi bus coach delivery truck trailer motorcycle evehicle custom1 custom2" speed="25.00" length="294.30" shape="84.49,627.17 243.52,621.78 309.21,619.59 378.62,617.17">
            <param key="origId" value="15773055"/>
        </lane>
    </edge>
    <edge id="15773693" from="7572124719" to="158067194" priority="9" type="highway.motorway_link" spreadType="center" shape="406.83,358.39 399.97,393.08 390.11,441.87 384.65,460.68 377.53,479.86 370.49,493.58 363.30,505.48 353.86,519.16 343.83,530.37 334.10,540.45 323.68,550.11 303.08,564.35 283.15,574.63 259.32,583.44 238.48,588.08 217.57,590.85 173.67,594.69 106.34,599.05 0.25,604.02">
        <lane id="15773693_0" index="0" allow="private emergency authority army vip passenger hov taxi bus coach delivery truck trailer motorcycle evehicle custom1 custom2" speed="13.89" length="547.45" shape="406.83,358.39 399.97,393.08 390.11,441.87 384.65,460.68 377.53,479.86 370.49,493.58 363.30,505.48 353.86,519.16 343.83,530.37 334.10,540.45 323.68,550.11 303.08,564.35 283.15,574.63 259.32,583.44 238.48,588.08 217.57,590.85 173.67,594.69 106.34,599.05 0.25,604.02">
            <param key="origId" value="15773693"/>
        </lane>
    </edge>
    <edge id="234877581" from="158046300" to="158003373" name="Bukit Timah Expressway" priority="14" type="highway.motorway" spreadType="center" shape="357.47,1295.21 356.77,1237.68 359.66,1132.73 361.77,1070.01 369.93,962.84 380.57,852.19 399.39,702.72 408.25,646.00 410.07,597.02">
        <lane id="234877581_0" index="0" allow="private emergency authority army vip passenger hov taxi bus coach delivery truck trailer motorcycle evehicle custom1 custom2" speed="25.00" length="659.99" shape="353.79,1255.97 353.57,1237.66 356.46,1132.63 358.57,1069.83 366.74,962.57 377.39,851.84 396.22,702.27 405.06,645.69 406.80,598.77">
            <param key="origId" value="234877581 115843655"/>
        </lane>
        <lane id="234877581_1" index="1" allow="private emergency authority army vip passenger hov taxi bus coach delivery truck trailer motorcycle evehicle custom1 custom2" speed="25.00" length="659.99" shape="356.99,1255.93 356.77,1237.68 359.66,1132.73 361.77,1070.01 369.93,962.84 380.57,852.19 399.39,702.72 408.25,646.00 410.01,598.74">
            <param key="origId" value="234877581 115843655"/>
        </lane>
        <lane id="234877581_2" index="2" allow="private emergency authority army vip passenger hov taxi bus coach delivery truck trailer motorcycle evehicle custom1 custom2" speed="25.00" length="659.99" shape="360.19,1255.89 359.97,1237.70 362.86,1132.83 364.97,1070.19 373.12,963.11 383.75,852.54 402.56,703.17 411.44,646.31 413.21,598.70">
            <param key="origId" value="234877581 115843655"/>
        </lane>
        <param key="ref" value="BKE"/>
    </edge>
    <edge id="262190478" from="158052803" to="158003373" priority="9" type="highway.motorway_link" spreadType="center" shape="378.71,615.57 412.78,615.04 443.58,617.56 459.79,619.68 476.06,624.45 491.50,630.04 504.99,636.67 515.24,642.99 525.20,650.46 543.52,667.80 556.81,686.49 567.15,706.18 574.08,725.98 576.69,738.13 578.42,750.50 578.65,761.76 577.53,772.89 574.03,784.15 568.96,795.63 554.17,812.89 538.69,823.08 523.24,831.75 503.40,833.84 476.84,829.41 451.76,813.86 435.82,794.10 424.54,769.69 416.79,745.25 414.29,709.95 416.06,675.88 416.99,645.93 416.42,597.80">
        <lane id="262190478_0" index="0" allow="private emergency authority army vip passenger hov taxi bus coach delivery truck trailer motorcycle evehicle custom1 custom2" speed="13.89" length="677.19" shape="378.83,613.97 412.83,613.44 443.75,615.97 460.12,618.11 476.56,622.93 492.13,628.57 505.76,635.27 516.14,641.67 526.23,649.23 544.73,666.75 558.18,685.65 568.62,705.54 575.62,725.55 578.27,737.85 580.02,750.37 580.25,761.82 579.11,773.21 575.53,784.71 570.33,796.49 555.24,814.10 539.52,824.45 523.74,833.31 503.35,835.45 476.27,830.94 450.69,815.08 434.45,794.95 423.05,770.27 415.21,745.55 412.69,709.97 414.46,675.81 415.39,645.91 414.83,598.68">
            <param key="origId" value="262190478 262190479 115843659"/>
        </lane>
        <lane id="262190478_1" index="1" allow="private emergency authority army vip passenger hov taxi bus coach delivery truck trailer motorcycle evehicle custom1 custom2" speed="13.89" length="677.19" shape="378.88,617.17 412.73,616.64 443.41,619.15 459.46,621.25 475.56,625.97 490.87,631.51 504.22,638.07 514.34,644.31 524.17,651.69 542.31,668.85 555.44,687.33 565.68,706.82 572.54,726.41 575.11,738.41 576.82,750.63 577.05,761.70 575.95,772.57 572.53,783.59 567.59,794.77 553.10,811.68 537.86,821.71 522.74,830.19 503.45,832.23 477.41,827.88 452.83,812.64 437.19,793.25 426.03,769.11 418.37,744.95 415.89,709.93 417.66,675.95 418.59,645.95 418.03,598.64">
            <param key="origId" value="262190478 262190479 115843659"/>
        </lane>
    </edge>
    <edge id="262190481" from="158043131" to="158043151" priority="9" type="highway.motorway_link" spreadType="center" shape="443.61,600.48 424.16,600.55 377.13,602.21">
        <lane id="262190481_0" index="0" allow="private emergency authority army vip passenger hov taxi bus coach delivery truck trailer motorcycle evehicle custom1 custom2" speed="13.89" length="58.65" shape="439.75,600.49 424.16,600.55 381.13,602.07">
            <param key="origId" value="262190481"/>
        </lane>
    </edge>
    <edge id="462871390" from="6076115189" to="158014654" priority="9" type="highway.motorway_link" spreadType="center" shape="86.98,642.77 140.59,638.23 180.08,637.35 211.67,640.58 239.94,645.64 260.02,652.05 277.94,660.34 301.73,676.24 314.13,689.10 325.63,703.68 332.14,713.87 338.69,726.74 344.59,742.46 348.69,758.37 352.21,779.80 353.02,796.26 352.48,819.65 350.90,844.29 344.97,927.60 340.87,1036.98">
        <lane id="462871390_0" index="0" allow="private emergency authority army vip passenger hov taxi bus coach delivery truck trailer motorcycle evehicle custom1 custom2" speed="13.89" length="530.90" shape="86.84,641.18 140.50,636.63 180.14,635.75 211.89,638.99 240.33,644.08 260.60,650.56 278.73,658.94 302.76,675.01 315.34,688.05 326.94,702.75 333.53,713.07 340.16,726.09 346.12,741.98 350.26,758.04 353.80,779.63 354.62,796.24 354.08,819.72 352.50,844.40 346.57,927.69 345.01,969.33">
            <param key="origId" value="462871390 809905253"/>
        </lane>
        <lane id="462871390_1" index="1" allow="private emergency authority army vip passenger hov taxi bus coach delivery truck trailer motorcycle evehicle custom1 custom2" speed="13.89" length="530.90" shape="87.12,644.36 140.68,639.83 180.02,638.95 211.45,642.17 239.55,647.20 259.44,653.54 277.15,661.74 300.70,677.47 312.92,690.15 324.32,704.61 330.75,714.67 337.22,727.39 343.06,742.94 347.12,758.70 350.62,779.97 351.42,796.28 350.88,819.58 349.30,844.18 343.37,927.51 341.81,969.21">
            <param key="origId" value="462871390 809905253"/>
        </lane>
    </edge>
    <edge id="462871393" from="5971965758" to="7572124720" priority="9" type="highway.motorway_link" spreadType="center" shape="230.35,605.78 191.03,606.81 108.31,609.31 0.00,613.20">
        <lane id="462871393_0" index="0" allow="private emergency authority army vip passenger hov taxi bus coach delivery truck trailer motorcycle evehicle custom1 custom2" speed="25.00" length="226.47" shape="226.44,609.08 191.12,610.01 108.42,612.51 0.11,616.40">
            <param key="origId" value="462871393"/>
        </lane>
        <lane id="462871393_1" index="1" allow="private emergency authority army vip passenger hov taxi bus coach delivery truck trailer motorcycle evehicle custom1 custom2" speed="25.00" length="226.47" shape="226.35,605.88 191.03,606.81 108.31,609.31 -0.00,613.20">
            <param key="origId" value="462871393"/>
        </lane>
        <lane id="462871393_2" index="2" allow="private emergency authority army vip passenger hov taxi bus coach delivery truck trailer motorcycle evehicle custom1 custom2" speed="25.00" length="226.47" shape="226.27,602.69 190.94,603.61 108.20,606.11 -0.11,610.00">
            <param key="origId" value="462871393"/>
        </lane>
    </edge>
    <edge id="478876321" from="478876321-AddedOnRampNode" to="158014905" name="Bukit Timah Expressway" priority="14" type="highway.motorway" spreadType="center" shape="333.91,1136.74 333.72,1139.51 332.56,1175.97 332.35,1230.56 330.84,1422.23 327.12,1533.14 322.98,1598.96 319.12,1649.07 310.87,1731.81 300.06,1806.43 290.61,1869.73 281.64,1926.91">
        <lane id="478876321_0" index="0" allow="private emergency authority army vip passenger hov taxi bus coach delivery truck trailer motorcycle evehicle custom1 custom2" speed="25.00" length="789.13" shape="338.47,1141.06 337.36,1176.06 337.15,1230.59 335.64,1422.33 331.91,1533.37 327.77,1599.30 323.90,1649.49 315.64,1732.39 304.81,1807.13 295.35,1870.46 286.38,1927.65">
            <param key="origId" value="478876321"/>
        </lane>
        <lane id="478876321_1" index="1" allow="private emergency authority army vip passenger hov taxi bus coach delivery truck trailer motorcycle evehicle custom1 custom2" speed="25.00" length="789.13" shape="335.28,1140.84 334.16,1176.00 333.95,1230.57 332.44,1422.26 328.72,1533.22 324.58,1599.07 320.71,1649.21 312.46,1732.00 301.64,1806.66 292.19,1869.97 283.22,1927.16">
            <param key="origId" value="478876321"/>
        </lane>
        <lane id="478876321_2" index="2" allow="private emergency authority army vip passenger hov taxi bus coach delivery truck trailer motorcycle evehicle custom1 custom2" speed="25.00" length="789.13" shape="332.08,1140.62 330.96,1175.94 330.75,1230.55 329.24,1422.20 325.52,1533.06 321.38,1598.85 317.53,1648.93 309.28,1731.62 298.48,1806.20 289.03,1869.49 280.06,1926.66">
            <param key="origId" value="478876321"/>
        </lane>
        <lane id="478876321_3" index="3" allow="private emergency authority army vip passenger hov taxi bus coach delivery truck trailer motorcycle evehicle custom1 custom2" speed="25.00" length="789.13" shape="328.89,1140.40 327.76,1175.88 327.55,1230.53 326.04,1422.13 322.33,1532.91 318.19,1598.62 314.34,1648.65 306.10,1731.23 295.31,1805.73 285.87,1869.00 276.90,1926.17">
            <param key="origId" value="478876321"/>
        </lane>
        <param key="ref" value="BKE"/>
    </edge>
    <edge id="478876321-AddedOnRampEdge" from="158014654" to="478876321-AddedOnRampNode" name="Bukit Timah Expressway" priority="14" type="highway.motorway" spreadType="center" shape="342.46,1037.09 335.51,1136.85">
        <lane id="478876321-AddedOnRampEdge_0" index="0" allow="private emergency authority army vip passenger hov taxi bus coach delivery truck trailer motorcycle evehicle custom1 custom2" speed="25.00" length="96.00" acceleration="1" shape="348.84,1037.53 342.17,1133.31">
            <param key="origId" value="478876321"/>
        </lane>
        <lane id="478876321-AddedOnRampEdge_1" index="1" allow="private emergency authority army vip passenger hov taxi bus coach delivery truck trailer motorcycle evehicle custom1 custom2" speed="25.00" length="96.00" acceleration="1" shape="345.65,1037.31 338.98,1133.08">
            <param key="origId" value="478876321"/>
        </lane>
        <lane id="478876321-AddedOnRampEdge_2" index="2" allow="private emergency authority army vip passenger hov taxi bus coach delivery truck trailer motorcycle evehicle custom1 custom2" speed="25.00" length="96.00" acceleration="1" shape="342.46,1037.09 335.79,1132.86">
            <param key="origId" value="478876321"/>
        </lane>
        <lane id="478876321-AddedOnRampEdge_3" index="3" allow="private emergency authority army vip passenger hov taxi bus coach delivery truck trailer motorcycle evehicle custom1 custom2" speed="25.00" length="96.00" shape="339.27,1036.87 332.60,1132.64">
            <param key="origId" value="478876321"/>
        </lane>
        <lane id="478876321-AddedOnRampEdge_4" index="4" allow="private emergency authority army vip passenger hov taxi bus coach delivery truck trailer motorcycle evehicle custom1 custom2" speed="25.00" length="96.00" shape="336.08,1036.65 329.40,1132.42">
            <param key="origId" value="478876321"/>
        </lane>
        <param key="ref" value="BKE"/>
    </edge>
    <edge id="631885735" from="631885735-AddedOnRampNode" to="6039413449" name="Bukit Timah Expressway" priority="14" type="highway.motorway" spreadType="center" shape="428.57,498.54 448.01,338.99 456.23,273.22 476.71,125.50 485.34,31.69 489.28,0.00">
        <lane id="631885735_0" index="0" allow="private emergency authority army vip passenger hov taxi bus coach delivery truck trailer motorcycle evehicle custom1 custom2" speed="25.00" length="498.29" shape="425.88,494.19 444.83,338.60 453.06,272.80 473.53,125.13 482.16,31.35 486.10,-0.39">
            <param key="origId" value="631885735 115843654"/>
        </lane>
        <lane id="631885735_1" index="1" allow="private emergency authority army vip passenger hov taxi bus coach delivery truck trailer motorcycle evehicle custom1 custom2" speed="25.00" length="498.29" shape="429.05,494.57 448.01,338.99 456.23,273.22 476.71,125.50 485.34,31.69 489.28,-0.00">
            <param key="origId" value="631885735 115843654"/>
        </lane>
        <lane id="631885735_2" index="2" allow="private emergency authority army vip passenger hov taxi bus coach delivery truck trailer motorcycle evehicle custom1 custom2" speed="25.00" length="498.29" shape="432.23,494.96 451.19,339.38 459.40,273.64 479.89,125.87 488.52,32.03 492.46,0.39">
            <param key="origId" value="631885735 115843654"/>
        </lane>
        <param key="ref" value="BKE"/>
    </edge>
    <edge id="631885735-AddedOnRampEdge" from="158003373" to="631885735-AddedOnRampNode" name="Bukit Timah Expressway" priority="14" type="highway.motorway" spreadType="center" shape="413.25,597.41 415.87,576.25 425.39,498.16">
        <lane id="631885735-AddedOnRampEdge_0" index="0" allow="private emergency authority army vip passenger hov taxi bus coach delivery truck trailer motorcycle evehicle custom1 custom2" speed="25.00" length="95.08" acceleration="1" shape="407.01,595.72 409.52,575.47 418.55,501.35">
            <param key="origId" value="631885735 115843654"/>
        </lane>