<?xml version="1.0" encoding="UTF-8"?>

<!-- generated on 2023-07-17 10:08:14 by Eclipse SUMO netconvert Version 1.17.0
<configuration xmlns:xsi="http://www.w3.org/2001/XMLSchema-instance" xsi:noNamespaceSchemaLocation="http://sumo.dlr.de/xsd/netconvertConfiguration.xsd">

    <input>
        <sumo-net-file value="osm.net.xml.gz"/>
    </input>

    <output>
        <output-file value="osm.net.xml"/>
        <output.street-names value="true"/>
    </output>

    <processing>
        <geometry.min-radius.fix.railways value="false"/>
        <geometry.max-grade.fix value="false"/>
        <offset.disable-normalization value="true"/>
        <lefthand value="1"/>
    </processing>

    <junctions>
        <no-turnarounds value="true"/>
        <junctions.corner-detail value="5"/>
        <junctions.limit-turn-speed value="5.50"/>
        <rectangular-lane-cut value="0"/>
    </junctions>

    <pedestrian>
        <walkingareas value="0"/>
    </pedestrian>

</configuration>
-->

<net version="1.16" junctionCornerDetail="5" lefthand="true" limitTurnSpeed="5.50" xmlns:xsi="http://www.w3.org/2001/XMLSchema-instance" xsi:noNamespaceSchemaLocation="http://sumo.dlr.de/xsd/net_file.xsd">

    <location netOffset="-369091.24,-139794.56" convBoundary="0.00,0.00,587.11,726.43" origBoundary="103.823354,1.264495,103.828629,1.271066" projParameter="+proj=utm +zone=48 +ellps=WGS84 +datum=WGS84 +units=m +no_defs"/>

    <type id="highway.bridleway" priority="1" numLanes="1" speed="2.78" allow="pedestrian" oneway="1" width="2.00"/>
    <type id="highway.bus_guideway" priority="1" numLanes="1" speed="27.78" allow="bus" oneway="1"/>
    <type id="highway.cycleway" priority="1" numLanes="1" speed="5.56" allow="bicycle" oneway="0" width="1.00"/>
    <type id="highway.footway" priority="1" numLanes="1" speed="2.78" allow="pedestrian" oneway="1" width="2.00"/>
    <type id="highway.ford" priority="1" numLanes="1" speed="2.78" allow="army" oneway="0"/>
    <type id="highway.living_street" priority="2" numLanes="1" speed="2.78" disallow="tram rail_urban rail rail_electric rail_fast ship" oneway="0"/>
    <type id="highway.motorway" priority="14" numLanes="2" speed="39.44" allow="private emergency authority army vip passenger hov taxi bus coach delivery truck trailer motorcycle evehicle custom1 custom2" oneway="1"/>
    <type id="highway.motorway_link" priority="9" numLanes="1" speed="22.22" allow="private emergency authority army vip passenger hov taxi bus coach delivery truck trailer motorcycle evehicle custom1 custom2" oneway="1"/>
    <type id="highway.path" priority="1" numLanes="1" speed="5.56" allow="pedestrian bicycle" oneway="0" width="2.00"/>
    <type id="highway.pedestrian" priority="1" numLanes="1" speed="2.78" allow="pedestrian" oneway="1" width="2.00"/>
    <type id="highway.primary" priority="12" numLanes="2" speed="27.78" disallow="tram rail_urban rail rail_electric rail_fast ship" oneway="0"/>
    <type id="highway.primary_link" priority="7" numLanes="1" speed="22.22" disallow="tram rail_urban rail rail_electric rail_fast ship" oneway="0"/>
    <type id="highway.raceway" priority="15" numLanes="2" speed="83.33" allow="vip" oneway="0"/>
    <type id="highway.residential" priority="3" numLanes="1" speed="13.89" disallow="tram rail_urban rail rail_electric rail_fast ship" oneway="0"/>
    <type id="highway.secondary" priority="11" numLanes="1" speed="27.78" disallow="tram rail_urban rail rail_electric rail_fast ship" oneway="0"/>
    <type id="highway.secondary_link" priority="6" numLanes="1" speed="22.22" disallow="tram rail_urban rail rail_electric rail_fast ship" oneway="0"/>
    <type id="highway.service" priority="1" numLanes="1" speed="5.56" allow="pedestrian delivery bicycle" oneway="0"/>
    <type id="highway.stairs" priority="1" numLanes="1" speed="1.39" allow="pedestrian" oneway="1" width="2.00"/>
    <type id="highway.step" priority="1" numLanes="1" speed="1.39" allow="pedestrian" oneway="1" width="2.00"/>
    <type id="highway.steps" priority="1" numLanes="1" speed="1.39" allow="pedestrian" oneway="1" width="2.00"/>
    <type id="highway.tertiary" priority="10" numLanes="1" speed="22.22" disallow="tram rail_urban rail rail_electric rail_fast ship" oneway="0"/>
    <type id="highway.tertiary_link" priority="5" numLanes="1" speed="22.22" disallow="tram rail_urban rail rail_electric rail_fast ship" oneway="0"/>
    <type id="highway.track" priority="1" numLanes="1" speed="5.56" allow="pedestrian motorcycle moped bicycle" oneway="0"/>
    <type id="highway.trunk" priority="13" numLanes="2" speed="27.78" disallow="pedestrian bicycle tram rail_urban rail rail_electric rail_fast ship" oneway="0"/>
    <type id="highway.trunk_link" priority="8" numLanes="1" speed="22.22" disallow="pedestrian bicycle tram rail_urban rail rail_electric rail_fast ship" oneway="0"/>
    <type id="highway.unclassified" priority="4" numLanes="1" speed="13.89" disallow="tram rail_urban rail rail_electric rail_fast ship" oneway="0"/>
    <type id="highway.unsurfaced" priority="1" numLanes="1" speed="8.33" disallow="tram rail_urban rail rail_electric rail_fast ship" oneway="0"/>
    <type id="railway.highspeed" priority="21" numLanes="1" speed="69.44" allow="rail_fast" oneway="1"/>
    <type id="railway.light_rail" priority="19" numLanes="1" speed="27.78" allow="rail_urban" oneway="1"/>
    <type id="railway.preserved" priority="16" numLanes="1" speed="27.78" allow="rail" oneway="1"/>
    <type id="railway.rail" priority="20" numLanes="1" speed="44.44" allow="rail" oneway="1"/>
    <type id="railway.subway" priority="18" numLanes="1" speed="27.78" allow="rail_urban" oneway="1"/>
    <type id="railway.tram" priority="17" numLanes="1" speed="13.89" allow="tram" oneway="1"/>

    <edge id=":1366339506_0" function="internal">
        <lane id=":1366339506_0_0" index="0" disallow="tram rail_urban rail rail_electric rail_fast ship" speed="15.28" length="17.43" shape="295.82,296.36 295.51,301.41 295.03,304.90 293.86,308.18 291.42,312.56"/>
        <lane id=":1366339506_0_1" index="1" disallow="tram rail_urban rail rail_electric rail_fast ship" speed="15.28" length="17.43" shape="298.96,297.41 298.59,302.66 298.03,306.27 296.73,309.66 294.16,314.22"/>
    </edge>
    <edge id=":1366339506_2" function="internal">
        <lane id=":1366339506_2_0" index="0" disallow="tram rail_urban rail rail_electric rail_fast ship" speed="16.67" length="17.23" shape="303.84,299.77 300.63,303.81 298.61,306.72 296.79,309.76 294.16,314.22"/>
        <lane id=":1366339506_2_1" index="1" disallow="tram rail_urban rail rail_electric rail_fast ship" speed="16.67" length="17.23" shape="306.37,301.72 303.23,305.68 301.26,308.53 299.47,311.50 296.90,315.87"/>
    </edge>
    <edge id=":243995681_0" function="internal">
        <lane id=":243995681_0_0" index="0" disallow="pedestrian bicycle tram rail_urban rail rail_electric rail_fast ship" speed="11.38" length="12.10" shape="308.88,339.94 310.12,338.72 312.35,337.53 315.59,336.37 319.82,335.23"/>
        <lane id=":243995681_0_1" index="1" disallow="pedestrian bicycle tram rail_urban rail rail_electric rail_fast ship" speed="11.83" length="13.11" shape="308.88,339.94 310.93,337.09 313.31,334.84 315.99,333.19 318.99,332.14"/>
    </edge>
    <edge id=":243995681_2" function="internal">
        <lane id=":243995681_2_0" index="0" disallow="tram rail_urban rail rail_electric rail_fast ship" speed="16.67" length="13.94" shape="308.88,339.94 316.56,328.74"/>
        <lane id=":243995681_2_1" index="1" disallow="tram rail_urban rail rail_electric rail_fast ship" speed="16.67" length="13.94" shape="306.14,338.29 313.90,326.97"/>
        <lane id=":243995681_2_2" index="2" disallow="tram rail_urban rail rail_electric rail_fast ship" speed="16.67" length="13.94" shape="303.40,336.63 311.24,325.19"/>
        <lane id=":243995681_2_3" index="3" disallow="tram rail_urban rail rail_electric rail_fast ship" speed="16.67" length="13.94" shape="300.66,334.98 308.58,323.42"/>
        <lane id=":243995681_2_4" index="4" disallow="tram rail_urban rail rail_electric rail_fast ship" speed="16.67" length="13.94" shape="297.92,333.32 305.91,321.64"/>
        <lane id=":243995681_2_5" index="5" disallow="tram rail_urban rail rail_electric rail_fast ship" speed="16.67" length="13.94" shape="295.18,331.67 303.25,319.87"/>
    </edge>
    <edge id=":246294768_0" function="internal">
        <lane id=":246294768_0_0" index="0" disallow="pedestrian bicycle tram rail_urban rail rail_electric rail_fast ship" speed="13.89" length="18.94" shape="408.15,296.85 404.25,292.22 402.18,287.85 401.08,283.79 400.07,280.08"/>
    </edge>
    <edge id=":246294768_1" function="internal">
        <lane id=":246294768_1_0" index="0" disallow="pedestrian bicycle tram rail_urban rail rail_electric rail_fast ship" speed="13.89" length="18.77" shape="408.15,296.85 404.30,292.87 401.99,289.85 399.69,286.80 395.90,282.76"/>
        <lane id=":246294768_1_1" index="1" disallow="pedestrian bicycle tram rail_urban rail rail_electric rail_fast ship" speed="13.89" length="18.77" shape="405.96,299.19 402.11,295.20 399.79,292.17 397.49,289.11 393.68,285.07"/>
        <lane id=":246294768_1_2" index="2" disallow="pedestrian bicycle tram rail_urban rail rail_electric rail_fast ship" speed="13.89" length="18.77" shape="403.78,301.53 399.91,297.53 397.59,294.49 395.28,291.43 391.47,287.38"/>
        <lane id=":246294768_1_3" index="3" disallow="pedestrian bicycle tram rail_urban rail rail_electric rail_fast ship" speed="13.89" length="18.77" shape="401.59,303.87 397.72,299.86 395.39,296.81 393.07,293.75 389.25,289.68"/>
        <lane id=":246294768_1_4" index="4" disallow="pedestrian bicycle tram rail_urban rail rail_electric rail_fast ship" speed="13.89" length="18.77" shape="401.59,303.87 387.03,291.99"/>
    </edge>
    <edge id=":26781923_0" function="internal">
        <lane id=":26781923_0_0" index="0" disallow="tram rail_urban rail rail_electric rail_fast ship" speed="15.28" length="9.65" shape="282.97,261.37 284.88,263.46 285.94,265.11 286.80,266.90 288.12,269.45"/>
        <lane id=":26781923_0_1" index="1" disallow="tram rail_urban rail rail_electric rail_fast ship" speed="15.28" length="10.54" shape="285.21,259.09 287.31,261.36 288.48,263.14 289.44,265.09 290.90,267.86"/>
    </edge>
    <edge id=":26781923_2" function="internal">
        <lane id=":26781923_2_0" index="0" disallow="tram rail_urban rail rail_electric rail_fast ship" speed="16.67" length="10.69" shape="287.45,256.80 289.48,259.26 290.52,261.26 291.58,263.22 293.73,265.56"/>
        <lane id=":26781923_2_1" index="1" disallow="tram rail_urban rail rail_electric rail_fast ship" speed="16.67" length="10.69" shape="289.68,254.51 291.69,256.94 292.69,258.91 293.74,260.85 295.85,263.16"/>
        <lane id=":26781923_2_2" index="2" disallow="tram rail_urban rail rail_electric rail_fast ship" speed="16.67" length="10.69" shape="291.92,252.23 293.89,254.62 294.87,256.57 295.89,258.48 297.96,260.76"/>
    </edge>
    <edge id=":4196754824_0" function="internal">
        <lane id=":4196754824_0_0" index="0" disallow="pedestrian bus tram rail_urban rail rail_electric rail_fast ship" speed="13.89" length="21.03" shape="267.69,263.26 272.09,268.42 275.36,272.95 277.90,276.86 280.12,280.19"/>
    </edge>
    <edge id=":4196754824_1" function="internal">
        <lane id=":4196754824_1_0" index="0" disallow="pedestrian bus tram rail_urban rail rail_electric rail_fast ship" speed="13.89" length="21.25" shape="270.03,261.08 274.42,266.30 277.69,270.93 280.30,274.89 282.73,278.09"/>
    </edge>
    <edge id=":4242599989_0" function="internal">
        <lane id=":4242599989_0_0" index="0" disallow="tram rail_urban rail rail_electric rail_fast ship" speed="16.67" length="8.17" shape="261.63,238.38 263.17,240.16 263.94,241.64 264.68,243.13 266.19,244.95"/>
        <lane id=":4242599989_0_1" index="1" disallow="tram rail_urban rail rail_electric rail_fast ship" speed="16.67" length="8.17" shape="261.63,238.38 263.53,239.81 265.05,240.50 266.57,241.19 268.43,242.67"/>
        <lane id=":4242599989_0_2" index="2" disallow="tram rail_urban rail rail_electric rail_fast ship" speed="16.67" length="8.17" shape="263.81,236.04 265.73,237.49 267.27,238.18 268.79,238.89 270.67,240.38"/>
        <lane id=":4242599989_0_3" index="3" disallow="tram rail_urban rail rail_electric rail_fast ship" speed="16.67" length="8.17" shape="266.00,233.70 267.93,235.16 269.48,235.87 271.01,236.59 272.91,238.09"/>
        <lane id=":4242599989_0_4" index="4" disallow="tram rail_urban rail rail_electric rail_fast ship" speed="16.67" length="8.17" shape="268.18,231.36 270.13,232.84 271.69,233.56 273.24,234.29 275.15,235.80"/>
    </edge>
    <edge id=":4600763580_0" function="internal">
        <lane id=":4600763580_0_0" index="0" disallow="pedestrian bicycle tram rail_urban rail rail_electric rail_fast ship" speed="13.89" length="7.26" shape="398.16,276.15 397.43,274.20 397.34,272.74 397.33,271.23 396.85,269.18"/>
        <lane id=":4600763580_0_1" index="1" disallow="pedestrian bicycle tram rail_urban rail rail_electric rail_fast ship" speed="13.89" length="7.26" shape="398.16,276.15 396.94,274.34 395.83,273.28 394.80,272.17 393.84,270.26"/>
    </edge>
    <edge id=":471455341_0" function="internal">
        <lane id=":471455341_0_0" index="0" disallow="tram rail_urban rail rail_electric rail_fast ship" speed="15.28" length="22.27" shape="330.92,218.77 324.82,218.11 320.43,217.83 316.37,216.70 311.30,213.49"/>
        <lane id=":471455341_0_1" index="1" disallow="tram rail_urban rail rail_electric rail_fast ship" speed="15.28" length="22.27" shape="330.33,221.92 324.10,221.22 319.38,220.84 314.88,219.52 309.34,216.03"/>
        <lane id=":471455341_0_2" index="2" disallow="tram rail_urban rail rail_electric rail_fast ship" speed="15.28" length="22.27" shape="330.33,221.92 323.88,221.68 318.61,222.26 313.46,221.83 307.39,218.56"/>
    </edge>
    <edge id=":471455341_3" function="internal">
        <lane id=":471455341_3_0" index="0" disallow="tram rail_urban rail rail_electric rail_fast ship" speed="16.67" length="21.44" shape="328.27,226.61 311.30,213.49"/>
        <lane id=":471455341_3_1" index="1" disallow="tram rail_urban rail rail_electric rail_fast ship" speed="16.67" length="21.44" shape="326.31,229.14 309.34,216.03"/>
        <lane id=":471455341_3_2" index="2" disallow="tram rail_urban rail rail_electric rail_fast ship" speed="16.67" length="21.44" shape="324.35,231.67 307.39,218.56"/>
        <lane id=":471455341_3_3" index="3" disallow="tram rail_urban rail rail_electric rail_fast ship" speed="16.67" length="21.44" shape="322.39,234.20 305.44,221.10"/>
    </edge>
    <edge id=":5189461851_0" function="internal">
        <lane id=":5189461851_0_0" index="0" disallow="pedestrian bicycle tram rail_urban rail rail_electric rail_fast ship" speed="19.44" length="8.11" shape="415.65,369.92 417.24,371.65 418.02,373.10 418.78,374.58 420.29,376.40"/>
        <lane id=":5189461851_0_1" index="1" disallow="pedestrian bicycle tram rail_urban rail rail_electric rail_fast ship" speed="19.44" length="8.11" shape="417.76,367.52 419.38,369.28 420.20,370.75 420.98,372.26 422.53,374.11"/>
    </edge>
    <edge id=":5967115299_0" function="internal">
        <lane id=":5967115299_0_0" index="0" disallow="pedestrian bicycle tram rail_urban rail rail_electric rail_fast ship" speed="13.89" length="8.21" shape="447.18,335.54 445.61,333.71 444.82,332.21 444.02,330.71 442.43,328.88"/>
        <lane id=":5967115299_0_1" index="1" disallow="pedestrian bicycle tram rail_urban rail rail_electric rail_fast ship" speed="13.89" length="8.21" shape="444.99,337.87 443.41,336.04 442.62,334.54 441.83,333.04 440.25,331.22"/>
        <lane id=":5967115299_0_2" index="2" disallow="pedestrian bicycle tram rail_urban rail rail_electric rail_fast ship" speed="13.89" length="8.21" shape="442.79,340.19 441.22,338.37 440.43,336.87 439.64,335.37 438.07,333.56"/>
        <lane id=":5967115299_0_3" index="3" disallow="pedestrian bicycle tram rail_urban rail rail_electric rail_fast ship" speed="13.89" length="8.21" shape="442.79,340.19 440.88,338.73 439.34,338.04 437.80,337.35 435.88,335.90"/>
    </edge>
    <edge id=":5969569096_0" function="internal">
        <lane id=":5969569096_0_0" index="0" disallow="pedestrian bicycle tram rail_urban rail rail_electric rail_fast ship" speed="19.44" length="8.21" shape="250.18,204.06 251.92,205.73 252.84,207.15 253.76,208.57 255.50,210.25"/>
        <lane id=":5969569096_0_1" index="1" disallow="pedestrian bicycle tram rail_urban rail rail_electric rail_fast ship" speed="19.44" length="8.21" shape="252.16,201.54 253.89,203.21 254.81,204.63 255.74,206.05 257.47,207.73"/>
        <lane id=":5969569096_0_2" index="2" disallow="pedestrian bicycle tram rail_urban rail rail_electric rail_fast ship" speed="19.44" length="8.21" shape="252.16,201.54 254.20,202.82 255.80,203.37 257.40,203.92 259.44,205.21"/>
    </edge>
    <edge id=":597109149_0" function="internal">
        <lane id=":597109149_0_0" index="0" disallow="pedestrian bicycle tram rail_urban rail rail_electric rail_fast ship" speed="8.33" length="0.10" shape="417.34,271.69 417.34,271.69"/>
    </edge>
    <edge id=":597109204_0" function="internal">
        <lane id=":597109204_0_0" index="0" disallow="pedestrian bicycle tram rail_urban rail rail_electric rail_fast ship" speed="13.21" length="13.81" shape="357.60,331.66 361.46,331.56 364.27,331.39 366.79,331.93 369.79,333.99"/>
        <lane id=":597109204_0_1" index="1" disallow="pedestrian bicycle tram rail_urban rail rail_electric rail_fast ship" speed="14.10" length="13.81" shape="358.04,328.48 362.45,328.43 365.63,328.38 368.48,329.16 371.90,331.58"/>
    </edge>
    <edge id=":597109204_2" function="internal">
        <lane id=":597109204_2_0" index="0" disallow="pedestrian bicycle tram rail_urban rail rail_electric rail_fast ship" speed="19.44" length="13.57" shape="359.74,324.77 369.79,333.99"/>
        <lane id=":597109204_2_1" index="1" disallow="pedestrian bicycle tram rail_urban rail rail_electric rail_fast ship" speed="19.44" length="13.57" shape="361.90,322.41 371.90,331.58"/>
        <lane id=":597109204_2_2" index="2" disallow="pedestrian bicycle tram rail_urban rail rail_electric rail_fast ship" speed="19.44" length="13.57" shape="364.06,320.05 374.01,329.17"/>
    </edge>
    <edge id=":5980931647_0" function="internal">
        <lane id=":5980931647_0_0" index="0" disallow="tram rail_urban rail rail_electric rail_fast ship" speed="16.67" length="8.66" shape="274.71,391.26 276.39,389.37 278.12,388.59 279.85,387.80 281.52,385.91"/>
        <lane id=":5980931647_0_1" index="1" disallow="tram rail_urban rail rail_electric rail_fast ship" speed="16.67" length="8.66" shape="271.95,389.64 273.63,387.76 275.36,386.98 277.08,386.20 278.75,384.31"/>
        <lane id=":5980931647_0_2" index="2" disallow="tram rail_urban rail rail_electric rail_fast ship" speed="16.67" length="8.66" shape="269.19,388.02 270.86,386.15 272.59,385.37 274.31,384.59 275.97,382.71"/>
        <lane id=":5980931647_0_3" index="3" disallow="tram rail_urban rail rail_electric rail_fast ship" speed="16.67" length="8.66" shape="266.43,386.40 268.10,384.54 269.82,383.77 271.54,382.99 273.20,381.12"/>
        <lane id=":5980931647_0_4" index="4" disallow="tram rail_urban rail rail_electric rail_fast ship" speed="16.67" length="8.66" shape="266.43,386.40 270.43,379.52"/>
        <lane id=":5980931647_0_5" index="5" disallow="tram rail_urban rail rail_electric rail_fast ship" speed="16.67" length="8.66" shape="266.43,386.40 267.23,384.04 267.05,382.17 266.86,380.29 267.65,377.92"/>
    </edge>
    <edge id=":cluster_246294767_471455339_0" function="internal">
        <lane id=":cluster_246294767_471455339_0_0" index="0" disallow="pedestrian bicycle tram rail_urban rail rail_electric rail_fast ship" speed="15.28" length="44.26" shape="381.69,269.10 371.71,259.92 364.25,253.88 356.83,248.44 346.99,241.08"/>
        <lane id=":cluster_246294767_471455339_0_1" index="1" disallow="pedestrian bicycle tram rail_urban rail rail_electric rail_fast ship" speed="15.28" length="44.26" shape="379.49,271.42 369.58,262.31 362.18,256.32 354.80,250.92 344.98,243.57"/>
        <lane id=":cluster_246294767_471455339_0_2" index="2" disallow="pedestrian bicycle tram rail_urban rail rail_electric rail_fast ship" speed="15.28" length="44.26" shape="377.29,273.74 367.45,264.69 360.11,258.76 352.78,253.40 342.98,246.07"/>
        <lane id=":cluster_246294767_471455339_0_3" index="3" disallow="pedestrian bicycle tram rail_urban rail rail_electric rail_fast ship" speed="15.28" length="44.26" shape="375.08,276.06 365.32,267.08 358.04,261.20 350.76,255.88 340.97,248.56"/>
    </edge>
    <edge id=":cluster_246294767_471455339_4" function="internal">
        <lane id=":cluster_246294767_471455339_4_0" index="0" disallow="pedestrian bicycle tram rail_urban rail rail_electric rail_fast ship" speed="13.21" length="40.96" shape="372.88,278.38 359.96,266.27 350.39,258.00 344.16,253.56 341.27,252.95"/>
        <lane id=":cluster_246294767_471455339_4_1" index="1" disallow="pedestrian bicycle tram rail_urban rail rail_electric rail_fast ship" speed="12.71" length="37.78" shape="372.88,278.38 360.98,267.24 352.13,259.66 346.34,255.62 343.61,255.14"/>
        <lane id=":cluster_246294767_471455339_4_2" index="2" disallow="pedestrian bicycle tram rail_urban rail rail_electric rail_fast ship" speed="12.18" length="34.62" shape="372.88,278.38 361.99,268.21 353.87,261.31 348.52,257.68 345.95,257.32"/>
        <lane id=":cluster_246294767_471455339_4_3" index="3" disallow="pedestrian bicycle tram rail_urban rail rail_electric rail_fast ship" speed="11.62" length="31.45" shape="372.88,278.38 363.00,269.18 355.61,262.97 350.70,259.74 348.29,259.50"/>
    </edge>
    <edge id=":cluster_246294767_471455339_8" function="internal">
        <lane id=":cluster_246294767_471455339_8_0" index="0" disallow="tram rail_urban rail rail_electric rail_fast ship" speed="12.73" length="1.17" shape="363.07,273.32 363.59,272.27"/>
        <lane id=":cluster_246294767_471455339_8_1" index="1" disallow="tram rail_urban rail rail_electric rail_fast ship" speed="11.88" length="1.13" shape="360.74,271.13 361.18,270.09"/>
        <lane id=":cluster_246294767_471455339_8_2" index="2" disallow="tram rail_urban rail rail_electric rail_fast ship" speed="10.98" length="0.91" shape="358.40,268.95 358.68,268.08"/>
        <lane id=":cluster_246294767_471455339_8_3" index="3" disallow="tram rail_urban rail rail_electric rail_fast ship" speed="10.03" length="0.63" shape="356.06,266.76 356.14,266.14"/>
    </edge>
    <edge id=":cluster_246294767_471455339_12" function="internal">
        <lane id=":cluster_246294767_471455339_12_0" index="0" disallow="tram rail_urban rail rail_electric rail_fast ship" speed="4.04" length="0.35" shape="351.38,262.40 351.44,262.05"/>
    </edge>
    <edge id=":cluster_246294767_471455339_13" function="internal">
        <lane id=":cluster_246294767_471455339_13_0" index="0" disallow="tram rail_urban rail rail_electric rail_fast ship" speed="12.73" length="39.60" shape="363.59,272.27 366.65,266.02 364.40,258.25 357.47,249.95 346.99,241.08"/>
    </edge>
    <edge id=":cluster_246294767_471455339_14" function="internal">
        <lane id=":cluster_246294767_471455339_14_0" index="0" disallow="tram rail_urban rail rail_electric rail_fast ship" speed="11.88" length="34.19" shape="361.18,270.09 363.24,265.25 360.76,258.65 354.33,251.40 344.98,243.57"/>
    </edge>
    <edge id=":cluster_246294767_471455339_15" function="internal">
        <lane id=":cluster_246294767_471455339_15_0" index="0" disallow="tram rail_urban rail rail_electric rail_fast ship" speed="10.98" length="29.08" shape="358.68,268.08 359.83,264.49 357.14,259.07 351.22,252.86 342.98,246.07"/>
    </edge>
    <edge id=":cluster_246294767_471455339_16" function="internal">
        <lane id=":cluster_246294767_471455339_16_0" index="0" disallow="tram rail_urban rail rail_electric rail_fast ship" speed="10.03" length="24.23" shape="356.14,266.14 356.44,263.74 353.55,259.51 348.14,254.36 340.97,248.56"/>
    </edge>
    <edge id=":cluster_246294767_471455339_17" function="internal">
        <lane id=":cluster_246294767_471455339_17_0" index="0" disallow="tram rail_urban rail rail_electric rail_fast ship" speed="4.04" length="5.84" shape="351.44,262.05 351.69,260.51 351.28,259.40 350.14,259.07 348.29,259.50"/>
    </edge>
    <edge id=":cluster_597109202_597109203_0" function="internal">
        <lane id=":cluster_597109202_597109203_0_0" index="0" disallow="tram rail_urban rail rail_electric rail_fast ship" speed="16.67" length="20.27" shape="322.49,273.06 318.77,277.79 316.86,281.54 315.06,285.35 311.67,290.25"/>
        <lane id=":cluster_597109202_597109203_0_1" index="1" disallow="tram rail_urban rail rail_electric rail_fast ship" speed="16.67" length="20.27" shape="324.79,275.28 321.13,279.95 319.28,283.63 317.52,287.40 314.14,292.28"/>
    </edge>
    <edge id=":cluster_597109202_597109203_2" function="internal">
        <lane id=":cluster_597109202_597109203_2_0" index="0" disallow="pedestrian bicycle tram rail_urban rail rail_electric rail_fast ship" speed="11.82" length="7.34" shape="327.08,277.51 325.55,281.79 326.44,284.44"/>
        <lane id=":cluster_597109202_597109203_2_1" index="1" disallow="pedestrian bicycle tram rail_urban rail rail_electric rail_fast ship" speed="10.94" length="2.58" shape="329.38,279.74 328.81,282.26"/>
    </edge>
    <edge id=":cluster_597109202_597109203_4" function="internal">
        <lane id=":cluster_597109202_597109203_4_0" index="0" disallow="tram rail_urban rail rail_electric rail_fast ship" speed="3.85" length="2.07" shape="329.38,279.74 329.08,281.39 329.21,281.76"/>
    </edge>
    <edge id=":cluster_597109202_597109203_17" function="internal">
        <lane id=":cluster_597109202_597109203_17_0" index="0" disallow="pedestrian bicycle tram rail_urban rail rail_electric rail_fast ship" speed="11.82" length="25.10" shape="326.44,284.44 327.49,287.62 332.89,295.00 341.77,303.95"/>
    </edge>
    <edge id=":cluster_597109202_597109203_18" function="internal">
        <lane id=":cluster_597109202_597109203_18_0" index="0" disallow="pedestrian bicycle tram rail_urban rail rail_electric rail_fast ship" speed="10.94" length="25.03" shape="328.81,282.26 328.69,282.83 330.89,287.51 335.98,293.77 343.97,301.63"/>
    </edge>
    <edge id=":cluster_597109202_597109203_19" function="internal">
        <lane id=":cluster_597109202_597109203_19_0" index="0" disallow="tram rail_urban rail rail_electric rail_fast ship" speed="3.85" length="3.35" shape="329.21,281.76 329.42,282.36 330.41,282.68 332.04,282.32"/>
    </edge>
    <edge id=":cluster_597109202_597109203_5" function="internal">
        <lane id=":cluster_597109202_597109203_5_0" index="0" disallow="tram rail_urban rail rail_electric rail_fast ship" speed="16.67" length="18.41" shape="331.82,306.79 335.12,302.68 337.44,299.92 339.87,297.26 343.53,293.47"/>
        <lane id=":cluster_597109202_597109203_5_1" index="1" disallow="tram rail_urban rail rail_electric rail_fast ship" speed="16.67" length="18.41" shape="329.35,304.76 332.70,300.59 335.05,297.79 337.52,295.09 341.23,291.24"/>
        <lane id=":cluster_597109202_597109203_5_2" index="2" disallow="tram rail_urban rail rail_electric rail_fast ship" speed="16.67" length="18.41" shape="326.87,302.73 330.27,298.50 332.66,295.65 335.17,292.92 338.93,289.01"/>
        <lane id=":cluster_597109202_597109203_5_3" index="3" disallow="tram rail_urban rail rail_electric rail_fast ship" speed="16.67" length="18.41" shape="324.40,300.70 327.85,296.41 330.27,293.52 332.82,290.74 336.64,286.78"/>
        <lane id=":cluster_597109202_597109203_5_4" index="4" disallow="tram rail_urban rail rail_electric rail_fast ship" speed="16.67" length="18.41" shape="321.93,298.67 325.43,294.32 327.88,291.39 330.47,288.57 334.34,284.55"/>
        <lane id=":cluster_597109202_597109203_5_5" index="5" disallow="tram rail_urban rail rail_electric rail_fast ship" speed="16.67" length="18.41" shape="319.45,296.64 323.00,292.23 325.49,289.26 328.11,286.40 332.04,282.32"/>
    </edge>
    <edge id=":cluster_597109202_597109203_11" function="internal">
        <lane id=":cluster_597109202_597109203_11_0" index="0" disallow="pedestrian bicycle tram rail_urban rail rail_electric rail_fast ship" speed="18.05" length="40.59" shape="309.39,279.35 339.56,306.27"/>
        <lane id=":cluster_597109202_597109203_11_1" index="1" disallow="pedestrian bicycle tram rail_urban rail rail_electric rail_fast ship" speed="18.05" length="40.59" shape="311.48,276.93 341.77,303.95"/>
        <lane id=":cluster_597109202_597109203_11_2" index="2" disallow="pedestrian bicycle tram rail_urban rail rail_electric rail_fast ship" speed="18.05" length="40.59" shape="313.56,274.50 343.97,301.63"/>
    </edge>
    <edge id=":cluster_597109202_597109203_14" function="internal">
        <lane id=":cluster_597109202_597109203_14_0" index="0" disallow="tram rail_urban rail rail_electric rail_fast ship" speed="11.12" length="27.32" shape="313.56,274.50 322.08,281.50 328.76,285.88 333.62,287.64 336.64,286.78"/>
        <lane id=":cluster_597109202_597109203_14_1" index="1" disallow="tram rail_urban rail rail_electric rail_fast ship" speed="10.52" length="24.36" shape="313.56,274.50 321.03,280.57 326.99,284.27 331.42,285.59 334.34,284.55"/>