<?xml version="1.0" encoding="UTF-8"?>

<!-- generated on 2023-07-11 13:17:57 by Eclipse SUMO netconvert Version 1.17.0
<configuration xmlns:xsi="http://www.w3.org/2001/XMLSchema-instance" xsi:noNamespaceSchemaLocation="http://sumo.dlr.de/xsd/netconvertConfiguration.xsd">

    <input>
        <sumo-net-file value="osm.net.xml.gz"/>
    </input>

    <output>
        <output-file value="osm.net.xml"/>
        <output.street-names value="true"/>
    </output>

    <processing>
        <geometry.min-radius.fix.railways value="false"/>
        <geometry.max-grade.fix value="false"/>
        <offset.disable-normalization value="true"/>
        <lefthand value="0"/>
    </processing>

    <junctions>
        <no-turnarounds value="true"/>
        <junctions.corner-detail value="5"/>
        <junctions.limit-turn-speed value="5.50"/>
        <rectangular-lane-cut value="0"/>
    </junctions>

    <pedestrian>
        <walkingareas value="0"/>
    </pedestrian>

</configuration>
-->

<net version="1.16" junctionCornerDetail="5" limitTurnSpeed="5.50" xmlns:xsi="http://www.w3.org/2001/XMLSchema-instance" xsi:noNamespaceSchemaLocation="http://sumo.dlr.de/xsd/net_file.xsd">

    <location netOffset="-352127.36,-147017.19" convBoundary="0.00,0.00,710.82,532.00" origBoundary="103.670870,1.329748,103.677258,1.334563" projParameter="+proj=utm +zone=48 +ellps=WGS84 +datum=WGS84 +units=m +no_defs"/>

    <type id="highway.bridleway" priority="1" numLanes="1" speed="2.78" allow="pedestrian" oneway="1" width="2.00"/>
    <type id="highway.bus_guideway" priority="1" numLanes="1" speed="27.78" allow="bus" oneway="1"/>
    <type id="highway.cycleway" priority="1" numLanes="1" speed="5.56" allow="bicycle" oneway="0" width="1.00"/>
    <type id="highway.footway" priority="1" numLanes="1" speed="2.78" allow="pedestrian" oneway="1" width="2.00"/>
    <type id="highway.ford" priority="1" numLanes="1" speed="2.78" allow="army" oneway="0"/>
    <type id="highway.living_street" priority="2" numLanes="1" speed="2.78" disallow="tram rail_urban rail rail_electric rail_fast ship" oneway="0"/>
    <type id="highway.motorway" priority="14" numLanes="2" speed="39.44" allow="private emergency authority army vip passenger hov taxi bus coach delivery truck trailer motorcycle evehicle custom1 custom2" oneway="1"/>
    <type id="highway.motorway_link" priority="9" numLanes="1" speed="22.22" allow="private emergency authority army vip passenger hov taxi bus coach delivery truck trailer motorcycle evehicle custom1 custom2" oneway="1"/>
    <type id="highway.path" priority="1" numLanes="1" speed="5.56" allow="pedestrian bicycle" oneway="0" width="2.00"/>
    <type id="highway.pedestrian" priority="1" numLanes="1" speed="2.78" allow="pedestrian" oneway="1" width="2.00"/>
    <type id="highway.primary" priority="12" numLanes="2" speed="27.78" disallow="tram rail_urban rail rail_electric rail_fast ship" oneway="0"/>
    <type id="highway.primary_link" priority="7" numLanes="1" speed="22.22" disallow="tram rail_urban rail rail_electric rail_fast ship" oneway="0"/>
    <type id="highway.raceway" priority="15" numLanes="2" speed="83.33" allow="vip" oneway="0"/>
    <type id="highway.residential" priority="3" numLanes="1" speed="13.89" disallow="tram rail_urban rail rail_electric rail_fast ship" oneway="0"/>
    <type id="highway.secondary" priority="11" numLanes="1" speed="27.78" disallow="tram rail_urban rail rail_electric rail_fast ship" oneway="0"/>
    <type id="highway.secondary_link" priority="6" numLanes="1" speed="22.22" disallow="tram rail_urban rail rail_electric rail_fast ship" oneway="0"/>
    <type id="highway.service" priority="1" numLanes="1" speed="5.56" allow="pedestrian delivery bicycle" oneway="0"/>
    <type id="highway.stairs" priority="1" numLanes="1" speed="1.39" allow="pedestrian" oneway="1" width="2.00"/>
    <type id="highway.step" priority="1" numLanes="1" speed="1.39" allow="pedestrian" oneway="1" width="2.00"/>
    <type id="highway.steps" priority="1" numLanes="1" speed="1.39" allow="pedestrian" oneway="1" width="2.00"/>
    <type id="highway.tertiary" priority="10" numLanes="1" speed="22.22" disallow="tram rail_urban rail rail_electric rail_fast ship" oneway="0"/>
    <type id="highway.tertiary_link" priority="5" numLanes="1" speed="22.22" disallow="tram rail_urban rail rail_electric rail_fast ship" oneway="0"/>
    <type id="highway.track" priority="1" numLanes="1" speed="5.56" allow="pedestrian motorcycle moped bicycle" oneway="0"/>
    <type id="highway.trunk" priority="13" numLanes="2" speed="27.78" disallow="pedestrian bicycle tram rail_urban rail rail_electric rail_fast ship" oneway="0"/>
    <type id="highway.trunk_link" priority="8" numLanes="1" speed="22.22" disallow="pedestrian bicycle tram rail_urban rail rail_electric rail_fast ship" oneway="0"/>
    <type id="highway.unclassified" priority="4" numLanes="1" speed="13.89" disallow="tram rail_urban rail rail_electric rail_fast ship" oneway="0"/>
    <type id="highway.unsurfaced" priority="1" numLanes="1" speed="8.33" disallow="tram rail_urban rail rail_electric rail_fast ship" oneway="0"/>
    <type id="railway.highspeed" priority="21" numLanes="1" speed="69.44" allow="rail_fast" oneway="1"/>
    <type id="railway.light_rail" priority="19" numLanes="1" speed="27.78" allow="rail_urban" oneway="1"/>
    <type id="railway.preserved" priority="16" numLanes="1" speed="27.78" allow="rail" oneway="1"/>
    <type id="railway.rail" priority="20" numLanes="1" speed="44.44" allow="rail" oneway="1"/>
    <type id="railway.subway" priority="18" numLanes="1" speed="27.78" allow="rail_urban" oneway="1"/>
    <type id="railway.tram" priority="17" numLanes="1" speed="13.89" allow="tram" oneway="1"/>

    <edge id=":1305793612_0" function="internal">
        <lane id=":1305793612_0_0" index="0" disallow="tram rail_urban rail rail_electric rail_fast ship" speed="13.89" length="7.14" shape="510.58,95.70 508.94,96.61 508.04,97.60 507.18,98.67 505.66,99.83"/>
        <lane id=":1305793612_0_1" index="1" disallow="tram rail_urban rail rail_electric rail_fast ship" speed="13.89" length="7.14" shape="509.42,92.72 507.65,93.68 506.66,94.71 505.71,95.83 504.06,97.06"/>
        <lane id=":1305793612_0_2" index="2" disallow="tram rail_urban rail rail_electric rail_fast ship" speed="13.89" length="7.14" shape="508.26,89.74 506.36,90.75 505.27,91.82 504.23,92.99 502.47,94.28"/>
        <lane id=":1305793612_0_3" index="3" disallow="tram rail_urban rail rail_electric rail_fast ship" speed="13.89" length="7.14" shape="508.26,89.74 506.07,90.33 504.47,90.43 502.91,90.63 500.87,91.51"/>
    </edge>
    <edge id=":1305819196_0" function="internal">
        <lane id=":1305819196_0_0" index="0" allow="private emergency authority army vip passenger hov taxi bus coach delivery truck trailer motorcycle evehicle custom1 custom2" speed="13.89" length="42.53" shape="373.06,141.33 380.94,145.12 390.80,148.95 401.80,152.06 413.14,153.71"/>
        <lane id=":1305819196_0_1" index="1" allow="private emergency authority army vip passenger hov taxi bus coach delivery truck trailer motorcycle evehicle custom1 custom2" speed="13.89" length="42.53" shape="371.56,144.16 379.50,147.99 389.48,151.93 400.61,155.15 412.01,156.85"/>
        <lane id=":1305819196_0_2" index="2" allow="private emergency authority army vip passenger hov taxi bus coach delivery truck trailer motorcycle evehicle custom1 custom2" speed="13.89" length="42.53" shape="371.56,144.16 379.32,148.48 388.92,153.50 399.66,157.80 410.88,159.99"/>
    </edge>
    <edge id=":1305819196_3" function="internal">
        <lane id=":1305819196_3_0" index="0" allow="private emergency authority army vip passenger hov taxi bus coach delivery truck trailer motorcycle evehicle custom1 custom2" speed="13.89" length="42.59" shape="371.56,144.16 380.53,148.96 391.96,155.18 402.46,161.11 408.67,165.03"/>
    </edge>
    <edge id=":1305819200_0" function="internal">
        <lane id=":1305819200_0_0" index="0" allow="private emergency authority army vip passenger hov taxi bus coach delivery truck trailer motorcycle evehicle custom1 custom2" speed="13.89" length="9.28" shape="409.61,71.35 407.23,69.93 405.62,68.90 403.92,68.10 401.28,67.42"/>
    </edge>
    <edge id=":1305819200_1" function="internal">
        <lane id=":1305819200_1_0" index="0" allow="private emergency authority army vip passenger hov taxi bus coach delivery truck trailer motorcycle evehicle custom1 custom2" speed="13.89" length="9.75" shape="410.86,67.99 408.14,67.10 406.39,66.09 404.65,65.11 401.91,64.28"/>
    </edge>
    <edge id=":246182072_0" function="internal">
        <lane id=":246182072_0_0" index="0" disallow="tram rail_urban rail rail_electric rail_fast ship" speed="16.66" length="23.22" shape="556.38,78.94 549.86,80.12 545.55,81.57 541.36,83.50 535.21,86.12"/>
        <lane id=":246182072_0_1" index="1" disallow="tram rail_urban rail rail_electric rail_fast ship" speed="16.66" length="23.22" shape="555.95,75.77 549.21,76.98 544.74,78.46 540.41,80.44 534.05,83.14"/>
        <lane id=":246182072_0_2" index="2" disallow="tram rail_urban rail rail_electric rail_fast ship" speed="16.66" length="23.22" shape="555.52,72.60 548.56,73.84 543.94,75.35 539.45,77.37 532.89,80.15"/>
    </edge>
    <edge id=":246182072_3" function="internal">
        <lane id=":246182072_3_0" index="0" allow="private emergency authority army vip passenger hov taxi bus coach delivery truck trailer motorcycle evehicle custom1 custom2" speed="16.66" length="25.82" shape="555.52,72.60 546.82,73.78 539.77,74.69 534.18,75.23 529.87,75.30"/>
    </edge>
    <edge id=":5220541410_0" function="internal">
        <lane id=":5220541410_0_0" index="0" allow="private emergency authority army vip passenger hov taxi bus coach delivery truck trailer motorcycle evehicle custom1 custom2" speed="13.89" length="8.13" shape="383.83,135.69 381.73,134.58 380.10,134.17 378.46,133.80 376.30,132.79"/>
    </edge>
    <edge id=":5256361050_0" function="internal">
        <lane id=":5256361050_0_0" index="0" allow="pedestrian delivery bicycle" speed="5.56" length="9.71" shape="378.34,190.25 370.24,195.61"/>
    </edge>
    <edge id=":5256361050_1" function="internal">
        <lane id=":5256361050_1_0" index="0" allow="pedestrian delivery bicycle" speed="5.56" length="10.33" shape="378.34,190.25 375.81,191.55 373.49,191.71 371.39,190.72 369.51,188.59"/>
    </edge>
    <edge id=":5256361050_2" function="internal">
        <lane id=":5256361050_2_0" index="0" allow="pedestrian delivery bicycle" speed="5.00" length="5.04" shape="372.18,186.83 373.10,187.87 374.13,188.35 375.26,188.28 376.49,187.64"/>
    </edge>
    <edge id=":5256361050_3" function="internal">
        <lane id=":5256361050_3_0" index="0" allow="pedestrian delivery bicycle" speed="5.56" length="10.32" shape="372.18,186.83 373.39,189.40 373.47,191.72 372.42,193.79 370.24,195.61"/>
    </edge>
    <edge id=":5256361050_4" function="internal">
        <lane id=":5256361050_4_0" index="0" allow="pedestrian delivery bicycle" speed="5.01" length="5.05" shape="368.56,192.88 369.63,192.00 370.14,190.99 370.10,189.85 369.51,188.59"/>
    </edge>
    <edge id=":5256361050_5" function="internal">
        <lane id=":5256361050_5_0" index="0" allow="pedestrian delivery bicycle" speed="5.56" length="9.50" shape="368.56,192.88 376.49,187.64"/>
    </edge>
    <edge id=":5256361050_6" function="internal">
        <lane id=":5256361050_6_0" index="0" allow="pedestrian delivery bicycle" speed="3.65" length="4.67" shape="368.56,192.88 370.01,192.94 370.77,193.41 370.84,194.30 370.24,195.61"/>
    </edge>
    <edge id=":5256361053_0" function="internal">
        <lane id=":5256361053_0_0" index="0" allow="pedestrian delivery bicycle" speed="5.56" length="7.85" shape="349.79,163.82 349.59,161.09 349.15,158.97 348.45,157.47 347.50,156.59"/>
    </edge>
    <edge id=":5256361053_1" function="internal">
        <lane id=":5256361053_1_0" index="0" allow="pedestrian delivery bicycle" speed="5.56" length="13.35" shape="349.79,163.82 350.22,159.84 351.76,157.65 354.40,157.27 358.15,158.68"/>
    </edge>
    <edge id=":5256361053_2" function="internal">
        <lane id=":5256361053_2_0" index="0" allow="pedestrian delivery bicycle" speed="4.68" length="5.82" shape="356.63,161.50 355.00,160.88 353.85,161.05 353.18,162.00 352.99,163.74"/>
    </edge>
    <edge id=":5256361053_3" function="internal">
        <lane id=":5256361053_3_0" index="0" allow="pedestrian delivery bicycle" speed="5.56" length="10.37" shape="356.63,161.50 347.50,156.59"/>
    </edge>
    <edge id=":5256361053_4" function="internal">
        <lane id=":5256361053_4_0" index="0" allow="pedestrian delivery bicycle" speed="5.56" length="10.37" shape="349.02,153.77 358.15,158.68"/>
    </edge>
    <edge id=":5256361053_5" function="internal">
        <lane id=":5256361053_5_0" index="0" allow="pedestrian delivery bicycle" speed="5.56" length="11.19" shape="349.02,153.77 350.68,155.15 351.90,157.28 352.67,160.14 352.99,163.74"/>
    </edge>
    <edge id=":5256361054_0" function="internal">
        <lane id=":5256361054_0_0" index="0" allow="pedestrian delivery bicycle" speed="5.56" length="6.59" shape="391.01,184.34 389.83,183.84 388.42,183.87 386.79,184.45 384.94,185.57"/>
    </edge>
    <edge id=":5256361054_1" function="internal">
        <lane id=":5256361054_1_0" index="0" allow="pedestrian delivery bicycle" speed="5.56" length="9.76" shape="391.01,184.34 383.11,178.62"/>
    </edge>
    <edge id=":5256361054_2" function="internal">
        <lane id=":5256361054_2_0" index="0" allow="pedestrian delivery bicycle" speed="5.56" length="9.76" shape="384.99,176.02 392.89,181.75"/>
    </edge>
    <edge id=":5256361054_3" function="internal">
        <lane id=":5256361054_3_0" index="0" allow="pedestrian delivery bicycle" speed="5.56" length="11.97" shape="384.99,176.02 387.48,178.43 388.30,180.82 387.45,183.20 384.94,185.57"/>
    </edge>
    <edge id=":5256361054_4" function="internal">
        <lane id=":5256361054_4_0" index="0" allow="pedestrian delivery bicycle" speed="4.77" length="5.45" shape="383.09,182.96 384.23,181.88 384.62,180.80 384.24,179.71 383.11,178.62"/>
    </edge>
    <edge id=":5256361054_5" function="internal">
        <lane id=":5256361054_5_0" index="0" allow="pedestrian delivery bicycle" speed="5.56" length="10.58" shape="383.09,182.96 385.88,181.35 388.44,180.60 390.78,180.74 392.89,181.75"/>
    </edge>
    <edge id=":5256361055_0" function="internal">
        <lane id=":5256361055_0_0" index="0" allow="pedestrian delivery bicycle" speed="3.65" length="4.67" shape="348.26,209.14 346.82,209.09 346.06,208.62 345.98,207.73 346.58,206.42"/>
    </edge>
    <edge id=":567854412_0" function="internal">
        <lane id=":567854412_0_0" index="0" allow="private emergency authority army vip passenger hov taxi bus coach delivery truck trailer motorcycle evehicle custom1 custom2" speed="13.89" length="12.26" shape="531.72,180.36 530.41,177.08 528.87,175.16 526.88,173.49 524.24,170.96"/>
        <lane id=":567854412_0_1" index="1" allow="private emergency authority army vip passenger hov taxi bus coach delivery truck trailer motorcycle evehicle custom1 custom2" speed="13.89" length="12.87" shape="531.72,180.36 530.77,176.65 530.10,174.05 528.95,171.72 526.60,168.80"/>
    </edge>
    <edge id=":567854412_2" function="internal">
        <lane id=":567854412_2_0" index="0" allow="private emergency authority army vip passenger hov taxi bus coach delivery truck trailer motorcycle evehicle custom1 custom2" speed="13.89" length="12.94" shape="531.72,180.36 530.78,176.56 530.48,173.88 530.44,171.16 530.28,167.22"/>
        <lane id=":567854412_2_1" index="1" allow="private emergency authority army vip passenger hov taxi bus coach delivery truck trailer motorcycle evehicle custom1 custom2" speed="13.89" length="12.94" shape="534.79,179.47 533.91,175.86 533.64,173.32 533.62,170.73 533.47,166.99"/>
    </edge>
    <edge id=":567854429_0" function="internal">
        <lane id=":567854429_0_0" index="0" allow="private emergency authority army vip passenger hov taxi bus coach delivery truck trailer motorcycle evehicle custom1 custom2" speed="13.89" length="8.21" shape="364.47,56.82 362.07,56.60 360.39,56.83 358.71,57.05 356.31,56.83"/>
    </edge>
    <edge id=":567854604_0" function="internal">
        <lane id=":567854604_0_0" index="0" allow="private emergency authority army vip passenger hov taxi bus coach delivery truck trailer motorcycle evehicle custom1 custom2" speed="13.89" length="20.01" shape="440.99,183.29 442.59,189.74 443.99,194.83 445.52,198.84 447.51,202.07"/>
    </edge>
    <edge id=":567854604_1" function="internal">
        <lane id=":567854604_1_0" index="0" allow="private emergency authority army vip passenger hov taxi bus coach delivery truck trailer motorcycle evehicle custom1 custom2" speed="13.89" length="20.95" shape="433.33,186.66 436.61,190.00 440.59,194.21 444.49,198.50 447.51,202.07"/>
    </edge>
    <edge id=":cluster_567854502_567854634_6103630915_0" function="internal">
        <lane id=":cluster_567854502_567854634_6103630915_0_0" index="0" allow="private emergency authority army vip passenger hov taxi bus coach delivery truck trailer motorcycle evehicle custom1 custom2" speed="13.89" length="61.60" shape="481.65,134.06 467.31,129.72 455.39,133.01 445.90,143.90 438.84,162.41"/>
    </edge>
    <edge id=":cluster_567854502_567854634_6103630915_1" function="internal">
        <lane id=":cluster_567854502_567854634_6103630915_1_0" index="0" allow="private emergency authority army vip passenger hov taxi bus coach delivery truck trailer motorcycle evehicle custom1 custom2" speed="13.89" length="56.59" shape="481.65,134.06 473.66,132.21 461.91,133.07 446.42,136.64 427.16,142.92"/>
        <lane id=":cluster_567854502_567854634_6103630915_1_1" index="1" allow="private emergency authority army vip passenger hov taxi bus coach delivery truck trailer motorcycle evehicle custom1 custom2" speed="13.89" length="56.59" shape="482.24,130.85 470.88,130.26 454.30,132.72 437.69,136.49 426.30,139.83"/>
    </edge>
    <edge id=":cluster_567854502_567854634_6103630915_3" function="internal">
        <lane id=":cluster_567854502_567854634_6103630915_3_0" index="0" allow="private emergency authority army vip passenger hov taxi bus coach delivery truck trailer motorcycle evehicle custom1 custom2" speed="13.89" length="41.86" shape="482.24,130.85 465.20,124.70 452.90,121.17 445.33,120.28 442.50,122.01"/>
    </edge>
    <edge id=":cluster_567854502_567854634_6103630915_4" function="internal">
        <lane id=":cluster_567854502_567854634_6103630915_4_0" index="0" allow="private emergency authority army vip passenger hov taxi bus coach delivery truck trailer motorcycle evehicle custom1 custom2" speed="13.89" length="61.14" shape="475.56,117.19 460.62,127.14 449.01,137.86 440.72,149.35 435.75,161.60"/>
    </edge>
    <edge id=":cluster_567854502_567854634_6103630915_5" function="internal">
        <lane id=":cluster_567854502_567854634_6103630915_5_0" index="0" allow="private emergency authority army vip passenger hov taxi bus coach delivery truck trailer motorcycle evehicle custom1 custom2" speed="13.89" length="53.84" shape="473.61,114.62 460.37,122.78 447.42,131.24 435.95,138.47 427.16,142.92"/>
        <lane id=":cluster_567854502_567854634_6103630915_5_1" index="1" allow="private emergency authority army vip passenger hov taxi bus coach delivery truck trailer motorcycle evehicle custom1 custom2" speed="13.89" length="53.84" shape="471.66,112.05 458.59,120.12 446.01,128.41 434.92,135.46 426.30,139.83"/>
    </edge>
    <edge id=":cluster_567854502_567854634_6103630915_7" function="internal">
        <lane id=":cluster_567854502_567854634_6103630915_7_0" index="0" disallow="tram rail_urban rail rail_electric rail_fast ship" speed="7.62" length="13.98" shape="469.72,109.47 478.33,108.95 483.13,111.32"/>
    </edge>
    <edge id=":cluster_567854502_567854634_6103630915_12" function="internal">
        <lane id=":cluster_567854502_567854634_6103630915_12_0" index="0" disallow="tram rail_urban rail rail_electric rail_fast ship" speed="7.62" length="13.98" shape="483.13,111.32 484.11,116.58 481.28,124.74"/>
    </edge>
    <edge id=":cluster_567854502_567854634_6103630915_8" function="internal">
        <lane id=":cluster_567854502_567854634_6103630915_8_0" index="0" allow="private emergency authority army vip passenger hov taxi bus coach delivery truck trailer motorcycle evehicle custom1 custom2" speed="13.89" length="32.93" shape="429.41,150.92 433.64,148.15 437.23,142.41 440.19,133.70 442.50,122.01"/>
    </edge>
    <edge id=":cluster_567854502_567854634_6103630915_9" function="internal">
        <lane id=":cluster_567854502_567854634_6103630915_9_0" index="0" allow="private emergency authority army vip passenger hov taxi bus coach delivery truck trailer motorcycle evehicle custom1 custom2" speed="13.89" length="58.33" shape="429.41,150.92 442.10,145.43 456.57,136.94 469.95,128.26 479.34,122.17"/>
        <lane id=":cluster_567854502_567854634_6103630915_9_1" index="1" allow="private emergency authority army vip passenger hov taxi bus coach delivery truck trailer motorcycle evehicle custom1 custom2" speed="13.89" length="58.33" shape="430.28,154.00 443.13,148.43 457.98,139.77 471.72,130.91 481.28,124.74"/>
    </edge>
    <edge id=":cluster_567854502_567854634_6103630915_11" function="internal">
        <lane id=":cluster_567854502_567854634_6103630915_11_0" index="0" allow="private emergency authority army vip passenger hov taxi bus coach delivery truck trailer motorcycle evehicle custom1 custom2" speed="7.46" length="13.08" shape="431.15,157.08 423.46,154.59 420.10,150.88"/>
    </edge>
    <edge id=":cluster_567854502_567854634_6103630915_13" function="internal">
        <lane id=":cluster_567854502_567854634_6103630915_13_0" index="0" allow="private emergency authority army vip passenger hov taxi bus coach delivery truck trailer motorcycle evehicle custom1 custom2" speed="7.46" length="13.08" shape="420.10,150.88 421.04,145.96 426.30,139.83"/>
    </edge>

    <edge id="-465528368" from="5256361054" to="4604862949" priority="1" type="highway.service" shape="388.88,180.82 411.75,197.41 444.69,229.15">
        <lane id="-465528368_0" index="0" allow="pedestrian delivery bicycle" speed="5.56" length="70.43" shape="392.89,181.75 412.78,196.18 445.80,228.00">
            <param key="origId" value="465528368"/>
        </lane>
    </edge>
    <edge id="-543749307" from="5256361050" to="5256361053" priority="1" type="highway.service" shape="373.49,191.73 360.52,172.04 351.49,167.77 351.22,156.77">
        <lane id="-543749307_0" index="0" allow="pedestrian delivery bicycle" speed="5.56" length="33.82" shape="369.51,188.59 359.43,173.29 349.91,168.79 349.79,163.82">
            <param key="origId" value="543749307"/>
        </lane>
    </edge>
    <edge id="-543749309" from="5256361050" to="5256361055" priority="1" type="highway.service">
        <lane id="-543749309_0" index="0" allow="pedestrian delivery bicycle" speed="5.56" length="25.81" shape="370.24,195.61 348.26,209.14">
            <param key="origId" value="543749309"/>
        </lane>
    </edge>
    <edge id="-646309070" from="4604862935" to="5256361053" priority="1" type="highway.service">
        <lane id="-646309070_0" index="0" allow="pedestrian delivery bicycle" speed="5.56" length="41.08" shape="312.85,134.30 349.02,153.77">
            <param key="origId" value="646309070"/>
        </lane>
    </edge>
    <edge id="-646310572" from="5256361053" to="5256361054" priority="1" type="highway.service" shape="351.22,156.77 368.61,166.13 388.88,180.82">
        <lane id="-646310572_0" index="0" allow="pedestrian delivery bicycle" speed="5.56" length="32.02" shape="358.15,158.68 369.46,164.77 384.99,176.02">
            <param key="origId" value="646310572"/>
        </lane>
    </edge>
    <edge id="-646683973" from="5256361054" to="5256361050" priority="1" type="highway.service">
        <lane id="-646683973_0" index="0" allow="pedestrian delivery bicycle" speed="5.56" length="8.09" shape="384.94,185.57 378.34,190.25">
            <param key="origId" value="646683973"/>
        </lane>
    </edge>
    <edge id="115626265#0" from="1305819196" to="cluster_567854502_567854634_6103630915" priority="9" type="highway.motorway_link" spreadType="center" shape="386.40,150.23 402.97,156.31 415.42,157.05 428.79,154.42 440.12,151.22">
        <lane id="115626265#0_0" index="0" allow="private emergency authority army vip passenger hov taxi bus coach delivery truck trailer motorcycle evehicle custom1 custom2" speed="13.89" length="18.59" shape="413.14,153.71 415.20,153.83 428.05,151.31 429.41,150.92">
            <param key="origId" value="115626265"/>
        </lane>
        <lane id="115626265#0_1" index="1" allow="private emergency authority army vip passenger hov taxi bus coach delivery truck trailer motorcycle evehicle custom1 custom2" speed="13.89" length="18.59" shape="412.01,156.85 415.42,157.05 428.79,154.42 430.28,154.00">
            <param key="origId" value="115626265"/>
        </lane>
        <lane id="115626265#0_2" index="2" allow="private emergency authority army vip passenger hov taxi bus coach delivery truck trailer motorcycle evehicle custom1 custom2" speed="13.89" length="18.59" shape="410.88,159.99 415.64,160.27 429.53,157.53 431.15,157.08">
            <param key="origId" value="115626265"/>
        </lane>
        <param key="origTo" value="567854502"/>
    </edge>
    <edge id="115626266" from="567854412" to="cluster_567854502_567854634_6103630915" name="Pan Island Expressway" priority="9" type="highway.motorway_link" spreadType="center" shape="532.63,177.76 520.20,164.18 506.06,148.75 495.10,139.28 482.38,132.62 476.43,130.33 470.59,129.28">
        <lane id="115626266_0" index="0" allow="private emergency authority army vip passenger hov taxi bus coach delivery truck trailer motorcycle evehicle custom1 custom2" speed="13.89" length="57.96" shape="524.24,170.96 519.02,165.26 504.94,149.90 494.19,140.61 481.65,134.06">
            <param key="origId" value="115626266"/>
        </lane>
        <lane id="115626266_1" index="1" allow="private emergency authority army vip passenger hov taxi bus coach delivery truck trailer motorcycle evehicle custom1 custom2" speed="13.89" length="57.96" shape="526.60,168.80 521.38,163.10 507.18,147.60 496.01,137.95 483.04,131.16 482.24,130.85">
            <param key="origId" value="115626266"/>
        </lane>
        <param key="origTo" value="567854634"/>
    </edge>
    <edge id="115626267" from="1305819196" to="567854604" priority="9" type="highway.motorway_link" spreadType="center" shape="386.40,150.23 406.80,163.54 422.89,176.35 442.41,195.63">
        <lane id="115626267_0" index="0" allow="private emergency authority army vip passenger hov taxi bus coach delivery truck trailer motorcycle evehicle custom1 custom2" speed="13.89" length="32.85" shape="408.67,165.03 422.89,176.35 433.33,186.66">
            <param key="origId" value="115626267 539512922"/>
        </lane>
    </edge>
    <edge id="115626268" from="567854604" to="567854537" priority="9" type="highway.motorway_link" spreadType="center" shape="442.41,195.63 478.21,240.83 499.46,277.42 512.15,304.89 523.81,335.82 553.90,430.84 592.99,532.00">
        <lane id="115626268_0" index="0" allow="private emergency authority army vip passenger hov taxi bus coach delivery truck trailer motorcycle evehicle custom1 custom2" speed="13.89" length="269.23" shape="447.51,202.07 478.21,240.83 499.46,277.42 512.15,304.89 523.81,335.82 553.90,430.84 559.12,444.36">
            <param key="origId" value="115626268"/>
        </lane>
    </edge>
    <edge id="44776835" from="567854429" to="567854435" priority="9" type="highway.motorway_link" spreadType="center" shape="360.23,57.61 309.24,47.44 222.70,36.03 146.81,32.80">
        <lane id="44776835_0" index="0" allow="private emergency authority army vip passenger hov taxi bus coach delivery truck trailer motorcycle evehicle custom1 custom2" speed="13.89" length="148.96" shape="356.31,56.83 309.24,47.44 222.70,36.03 209.04,35.45">
            <param key="origId" value="44776835"/>
        </lane>
    </edge>
    <edge id="465528368" from="4604862949" to="5256361054" priority="1" type="highway.service" shape="444.69,229.15 411.75,197.41 388.88,180.82">
        <lane id="465528368_0" index="0" allow="pedestrian delivery bicycle" speed="5.56" length="69.98" shape="443.58,230.30 410.72,198.64 391.01,184.34">
            <param key="origId" value="465528368"/>
        </lane>
    </edge>
    <edge id="465657482" from="567854494" to="1305819196" priority="9" type="highway.motorway_link" spreadType="center" shape="271.18,94.29 289.53,100.97 334.40,122.60 386.40,150.23">
        <lane id="465657482_0" index="0" allow="private emergency authority army vip passenger hov taxi bus coach delivery truck trailer motorcycle evehicle custom1 custom2" speed="13.89" length="112.27" shape="271.73,92.79 290.15,99.49 335.12,121.17 373.06,141.33">
            <param key="origId" value="465657482"/>
        </lane>
        <lane id="465657482_1" index="1" allow="private emergency authority army vip passenger hov taxi bus coach delivery truck trailer motorcycle evehicle custom1 custom2" speed="13.89" length="112.27" shape="270.63,95.79 288.91,102.45 333.68,124.03 371.56,144.16">
            <param key="origId" value="465657482"/>
        </lane>
    </edge>