<?xml version="1.0" encoding="UTF-8"?>

<!-- generated on 2023-07-14 15:43:57 by Eclipse SUMO netconvert Version 1.17.0
<configuration xmlns:xsi="http://www.w3.org/2001/XMLSchema-instance" xsi:noNamespaceSchemaLocation="http://sumo.dlr.de/xsd/netconvertConfiguration.xsd">

    <input>
        <sumo-net-file value="osm.net.xml.gz"/>
    </input>

    <output>
        <output-file value="osm.net.xml"/>
        <output.street-names value="true"/>
    </output>

    <processing>
        <geometry.min-radius.fix.railways value="false"/>
        <geometry.max-grade.fix value="false"/>
        <offset.disable-normalization value="true"/>
        <lefthand value="1"/>
    </processing>

    <junctions>
        <no-turnarounds value="true"/>
        <junctions.corner-detail value="5"/>
        <junctions.limit-turn-speed value="5.50"/>
        <rectangular-lane-cut value="0"/>
    </junctions>

    <pedestrian>
        <walkingareas value="0"/>
    </pedestrian>

</configuration>
-->

<net version="1.16" junctionCornerDetail="5" lefthand="true" limitTurnSpeed="5.50" xmlns:xsi="http://www.w3.org/2001/XMLSchema-instance" xsi:noNamespaceSchemaLocation="http://sumo.dlr.de/xsd/net_file.xsd">

    <location netOffset="-361769.59,-144981.73" convBoundary="0.00,0.00,605.89,672.95" origBoundary="103.757530,1.311384,103.762968,1.317470" projParameter="+proj=utm +zone=48 +ellps=WGS84 +datum=WGS84 +units=m +no_defs"/>

    <type id="highway.bridleway" priority="1" numLanes="1" speed="2.78" allow="pedestrian" oneway="1" width="2.00"/>
    <type id="highway.bus_guideway" priority="1" numLanes="1" speed="27.78" allow="bus" oneway="1"/>
    <type id="highway.cycleway" priority="1" numLanes="1" speed="5.56" allow="bicycle" oneway="0" width="1.00"/>
    <type id="highway.footway" priority="1" numLanes="1" speed="2.78" allow="pedestrian" oneway="1" width="2.00"/>
    <type id="highway.ford" priority="1" numLanes="1" speed="2.78" allow="army" oneway="0"/>
    <type id="highway.living_street" priority="2" numLanes="1" speed="2.78" disallow="tram rail_urban rail rail_electric rail_fast ship" oneway="0"/>
    <type id="highway.motorway" priority="14" numLanes="2" speed="39.44" allow="private emergency authority army vip passenger hov taxi bus coach delivery truck trailer motorcycle evehicle custom1 custom2" oneway="1"/>
    <type id="highway.motorway_link" priority="9" numLanes="1" speed="22.22" allow="private emergency authority army vip passenger hov taxi bus coach delivery truck trailer motorcycle evehicle custom1 custom2" oneway="1"/>
    <type id="highway.path" priority="1" numLanes="1" speed="5.56" allow="pedestrian bicycle" oneway="0" width="2.00"/>
    <type id="highway.pedestrian" priority="1" numLanes="1" speed="2.78" allow="pedestrian" oneway="1" width="2.00"/>
    <type id="highway.primary" priority="12" numLanes="2" speed="27.78" disallow="tram rail_urban rail rail_electric rail_fast ship" oneway="0"/>
    <type id="highway.primary_link" priority="7" numLanes="1" speed="22.22" disallow="tram rail_urban rail rail_electric rail_fast ship" oneway="0"/>
    <type id="highway.raceway" priority="15" numLanes="2" speed="83.33" allow="vip" oneway="0"/>
    <type id="highway.residential" priority="3" numLanes="1" speed="13.89" disallow="tram rail_urban rail rail_electric rail_fast ship" oneway="0"/>
    <type id="highway.secondary" priority="11" numLanes="1" speed="27.78" disallow="tram rail_urban rail rail_electric rail_fast ship" oneway="0"/>
    <type id="highway.secondary_link" priority="6" numLanes="1" speed="22.22" disallow="tram rail_urban rail rail_electric rail_fast ship" oneway="0"/>
    <type id="highway.service" priority="1" numLanes="1" speed="5.56" allow="pedestrian delivery bicycle" oneway="0"/>
    <type id="highway.stairs" priority="1" numLanes="1" speed="1.39" allow="pedestrian" oneway="1" width="2.00"/>
    <type id="highway.step" priority="1" numLanes="1" speed="1.39" allow="pedestrian" oneway="1" width="2.00"/>
    <type id="highway.steps" priority="1" numLanes="1" speed="1.39" allow="pedestrian" oneway="1" width="2.00"/>
    <type id="highway.tertiary" priority="10" numLanes="1" speed="22.22" disallow="tram rail_urban rail rail_electric rail_fast ship" oneway="0"/>
    <type id="highway.tertiary_link" priority="5" numLanes="1" speed="22.22" disallow="tram rail_urban rail rail_electric rail_fast ship" oneway="0"/>
    <type id="highway.track" priority="1" numLanes="1" speed="5.56" allow="pedestrian motorcycle moped bicycle" oneway="0"/>
    <type id="highway.trunk" priority="13" numLanes="2" speed="27.78" disallow="pedestrian bicycle tram rail_urban rail rail_electric rail_fast ship" oneway="0"/>
    <type id="highway.trunk_link" priority="8" numLanes="1" speed="22.22" disallow="pedestrian bicycle tram rail_urban rail rail_electric rail_fast ship" oneway="0"/>
    <type id="highway.unclassified" priority="4" numLanes="1" speed="13.89" disallow="tram rail_urban rail rail_electric rail_fast ship" oneway="0"/>
    <type id="highway.unsurfaced" priority="1" numLanes="1" speed="8.33" disallow="tram rail_urban rail rail_electric rail_fast ship" oneway="0"/>
    <type id="railway.highspeed" priority="21" numLanes="1" speed="69.44" allow="rail_fast" oneway="1"/>
    <type id="railway.light_rail" priority="19" numLanes="1" speed="27.78" allow="rail_urban" oneway="1"/>
    <type id="railway.preserved" priority="16" numLanes="1" speed="27.78" allow="rail" oneway="1"/>
    <type id="railway.rail" priority="20" numLanes="1" speed="44.44" allow="rail" oneway="1"/>
    <type id="railway.subway" priority="18" numLanes="1" speed="27.78" allow="rail_urban" oneway="1"/>
    <type id="railway.tram" priority="17" numLanes="1" speed="13.89" allow="tram" oneway="1"/>

    <edge id=":10026307266_0" function="internal">
        <lane id=":10026307266_0_0" index="0" disallow="tram rail_urban rail rail_electric rail_fast ship" speed="3.65" length="4.67" shape="337.63,491.66 337.63,490.21 337.19,489.44 336.30,489.33 334.97,489.88"/>
    </edge>
    <edge id=":1218572699_0" function="internal">
        <lane id=":1218572699_0_0" index="0" disallow="tram rail_urban rail rail_electric rail_fast ship" speed="13.89" length="6.18" shape="293.79,168.41 294.82,166.89 295.55,165.83 296.44,164.95 297.94,163.94"/>
    </edge>
    <edge id=":1218572699_1" function="internal">
        <lane id=":1218572699_1_0" index="0" disallow="tram rail_urban rail rail_electric rail_fast ship" speed="7.20" length="4.40" shape="292.19,162.44 292.34,163.72 292.27,164.63 291.91,165.47 291.19,166.54"/>
    </edge>
    <edge id=":1218572711_0" function="internal">
        <lane id=":1218572711_0_0" index="0" disallow="tram rail_urban rail rail_electric rail_fast ship" speed="6.41" length="9.04" shape="203.14,263.65 201.21,265.23 199.26,265.78 197.29,265.31 195.30,263.81"/>
    </edge>
    <edge id=":1218572711_1" function="internal">
        <lane id=":1218572711_1_0" index="0" disallow="tram rail_urban rail rail_electric rail_fast ship" speed="13.89" length="14.35" shape="203.14,263.65 193.63,274.40"/>
    </edge>
    <edge id=":1218572711_2" function="internal">
        <lane id=":1218572711_2_0" index="0" disallow="tram rail_urban rail rail_electric rail_fast ship" speed="13.89" length="14.23" shape="196.07,276.48 205.50,265.81"/>
    </edge>
    <edge id=":1218572711_3" function="internal">
        <lane id=":1218572711_3_0" index="0" disallow="tram rail_urban rail rail_electric rail_fast ship" speed="8.26" length="3.77" shape="196.07,276.48 198.07,273.28"/>
    </edge>
    <edge id=":1218572711_6" function="internal">
        <lane id=":1218572711_6_0" index="0" disallow="tram rail_urban rail rail_electric rail_fast ship" speed="8.26" length="10.45" shape="198.07,273.28 198.60,270.10 197.68,266.95 195.30,263.81"/>
    </edge>
    <edge id=":1218572711_4" function="internal">
        <lane id=":1218572711_4_0" index="0" disallow="tram rail_urban rail rail_electric rail_fast ship" speed="6.81" length="9.36" shape="193.03,266.07 194.62,268.15 195.25,270.24 194.92,272.32 193.63,274.40"/>
    </edge>
    <edge id=":1218572711_5" function="internal">
        <lane id=":1218572711_5_0" index="0" disallow="tram rail_urban rail rail_electric rail_fast ship" speed="7.92" length="14.37" shape="193.03,266.07 196.20,268.45 199.33,269.20 202.43,268.32 205.50,265.81"/>
    </edge>
    <edge id=":1218572747_0" function="internal">
        <lane id=":1218572747_0_0" index="0" disallow="tram rail_urban rail rail_electric rail_fast ship" speed="6.45" length="9.03" shape="248.74,214.70 246.71,216.13 244.73,216.55 242.78,215.96 240.88,214.36"/>
    </edge>
    <edge id=":1218572747_1" function="internal">
        <lane id=":1218572747_1_0" index="0" disallow="tram rail_urban rail rail_electric rail_fast ship" speed="13.89" length="14.30" shape="248.74,214.70 238.69,224.87"/>
    </edge>
    <edge id=":1218572747_2" function="internal">
        <lane id=":1218572747_2_0" index="0" disallow="tram rail_urban rail rail_electric rail_fast ship" speed="13.89" length="14.08" shape="241.05,227.04 250.94,217.02"/>
    </edge>
    <edge id=":1218572747_3" function="internal">
        <lane id=":1218572747_3_0" index="0" disallow="tram rail_urban rail rail_electric rail_fast ship" speed="8.29" length="3.75" shape="241.05,227.04 243.15,223.93"/>
    </edge>
    <edge id=":1218572747_6" function="internal">
        <lane id=":1218572747_6_0" index="0" disallow="tram rail_urban rail rail_electric rail_fast ship" speed="8.29" length="10.40" shape="243.15,223.93 243.83,220.79 243.07,217.60 240.88,214.36"/>
    </edge>
    <edge id=":1218572747_4" function="internal">
        <lane id=":1218572747_4_0" index="0" disallow="tram rail_urban rail rail_electric rail_fast ship" speed="6.85" length="9.36" shape="238.49,216.49 239.96,218.65 240.49,220.76 240.06,222.84 238.69,224.87"/>
    </edge>
    <edge id=":1218572747_5" function="internal">
        <lane id=":1218572747_5_0" index="0" disallow="tram rail_urban rail rail_electric rail_fast ship" speed="7.95" length="14.30" shape="238.49,216.49 241.50,219.03 244.58,219.96 247.73,219.29 250.94,217.02"/>
    </edge>
    <edge id=":1218572776_0" function="internal">
        <lane id=":1218572776_0_0" index="0" disallow="tram rail_urban rail rail_electric rail_fast ship" speed="3.65" length="4.67" shape="40.23,148.71 38.90,149.25 38.34,149.96 38.57,150.82 39.59,151.85"/>
    </edge>
    <edge id=":246293922_0" function="internal">
        <lane id=":246293922_0_0" index="0" allow="private emergency authority army vip passenger hov taxi bus coach delivery truck trailer motorcycle evehicle custom1 custom2" speed="16.66" length="26.01" shape="427.42,530.70 422.32,524.44 418.91,519.59 416.08,514.99 412.74,509.46"/>
        <lane id=":246293922_0_1" index="1" allow="private emergency authority army vip passenger hov taxi bus coach delivery truck trailer motorcycle evehicle custom1 custom2" speed="16.66" length="26.01" shape="424.99,532.79 419.82,526.44 416.35,521.52 413.48,516.86 410.12,511.32"/>
    </edge>
    <edge id=":246293922_2" function="internal">
        <lane id=":246293922_2_0" index="0" allow="private emergency authority army vip passenger hov taxi bus coach delivery truck trailer motorcycle evehicle custom1 custom2" speed="15.28" length="26.20" shape="422.56,534.87 417.46,528.44 414.10,523.39 411.21,518.72 407.51,513.40"/>
        <lane id=":246293922_2_1" index="1" allow="private emergency authority army vip passenger hov taxi bus coach delivery truck trailer motorcycle evehicle custom1 custom2" speed="15.28" length="26.20" shape="420.13,536.95 415.05,530.54 411.70,525.52 408.82,520.86 405.13,515.55"/>
    </edge>
    <edge id=":4723127958_0" function="internal">
        <lane id=":4723127958_0_0" index="0" allow="private emergency authority army vip passenger hov taxi bus coach delivery truck trailer motorcycle evehicle custom1 custom2" speed="19.44" length="0.30" shape="427.68,194.35 427.46,194.55"/>
    </edge>
    <edge id=":4766905391_0" function="internal">
        <lane id=":4766905391_0_0" index="0" allow="private emergency authority army vip passenger hov taxi bus coach delivery truck trailer motorcycle evehicle custom1 custom2" speed="13.89" length="8.08" shape="437.76,237.80 439.50,236.23 440.97,235.47 442.47,234.74 444.32,233.27"/>
        <lane id=":4766905391_0_1" index="1" allow="private emergency authority army vip passenger hov taxi bus coach delivery truck trailer motorcycle evehicle custom1 custom2" speed="13.89" length="8.08" shape="437.76,237.80 439.16,235.87 439.85,234.33 440.57,232.82 442.08,230.98"/>
    </edge>
    <edge id=":566531147_0" function="internal">
        <lane id=":566531147_0_0" index="0" allow="private emergency authority army vip passenger hov taxi bus coach delivery truck trailer motorcycle evehicle custom1 custom2" speed="19.45" length="3.04" shape="522.96,149.43 525.09,147.25"/>
    </edge>
    <edge id=":566531147_1" function="internal">
        <lane id=":566531147_1_0" index="0" allow="private emergency authority army vip passenger hov taxi bus coach delivery truck trailer motorcycle evehicle custom1 custom2" speed="25.00" length="2.99" shape="520.69,147.12 522.82,145.00"/>
        <lane id=":566531147_1_1" index="1" allow="private emergency authority army vip passenger hov taxi bus coach delivery truck trailer motorcycle evehicle custom1 custom2" speed="25.00" length="2.99" shape="518.44,144.84 520.56,142.74"/>
        <lane id=":566531147_1_2" index="2" allow="private emergency authority army vip passenger hov taxi bus coach delivery truck trailer motorcycle evehicle custom1 custom2" speed="25.00" length="2.99" shape="516.19,142.57 518.29,140.48"/>
    </edge>
    <edge id=":566531155_0" function="internal">
        <lane id=":566531155_0_0" index="0" allow="private emergency authority army vip passenger hov taxi bus coach delivery truck trailer motorcycle evehicle custom1 custom2" speed="13.89" length="12.86" shape="232.21,459.98 234.81,457.82 237.38,456.27 240.10,454.91 243.14,453.33"/>
    </edge>
    <edge id=":566531155_1" function="internal">
        <lane id=":566531155_1_0" index="0" allow="private emergency authority army vip passenger hov taxi bus coach delivery truck trailer motorcycle evehicle custom1 custom2" speed="13.89" length="12.85" shape="232.21,459.98 240.86,450.48"/>
    </edge>
    <edge id=":566531162_0" function="internal">
        <lane id=":566531162_0_0" index="0" allow="private emergency authority army vip passenger hov taxi bus coach delivery truck trailer motorcycle evehicle custom1 custom2" speed="13.89" length="26.91" shape="382.46,308.62 385.72,301.59 389.03,294.71 392.22,288.86 395.07,284.92"/>
    </edge>
    <edge id=":566531162_1" function="internal">
        <lane id=":566531162_1_0" index="0" allow="private emergency authority army vip passenger hov taxi bus coach delivery truck trailer motorcycle evehicle custom1 custom2" speed="13.89" length="27.59" shape="375.87,304.73 395.07,284.92"/>
    </edge>
    <edge id=":566531163_0" function="internal">
        <lane id=":566531163_0_0" index="0" allow="private emergency authority army vip passenger hov taxi bus coach delivery truck trailer motorcycle evehicle custom1 custom2" speed="16.66" length="13.52" shape="476.16,144.95 473.31,147.55 470.81,148.58 467.94,149.08 464.02,150.08"/>
        <lane id=":566531163_0_1" index="1" allow="private emergency authority army vip passenger hov taxi bus coach delivery truck trailer motorcycle evehicle custom1 custom2" speed="16.66" length="15.19" shape="478.57,147.05 475.39,150.02 472.61,151.28 469.43,151.95 465.04,153.11"/>
    </edge>
    <edge id=":566531163_2" function="internal">
        <lane id=":566531163_2_0" index="0" allow="private emergency authority army vip passenger hov taxi bus coach delivery truck trailer motorcycle evehicle custom1 custom2" speed="19.44" length="14.87" shape="478.57,147.05 475.21,150.37 472.31,152.48 469.65,154.20 467.02,156.34"/>
    </edge>
    <edge id=":566531164_0" function="internal">
        <lane id=":566531164_0_0" index="0" allow="private emergency authority army vip passenger hov taxi bus coach delivery truck trailer motorcycle evehicle custom1 custom2" speed="12.50" length="17.29" shape="374.64,231.69 373.30,236.45 372.34,239.79 370.80,242.77 367.70,246.51"/>
        <lane id=":566531164_0_1" index="1" allow="private emergency authority army vip passenger hov taxi bus coach delivery truck trailer motorcycle evehicle custom1 custom2" speed="12.50" length="17.29" shape="377.65,232.78 376.18,237.91 375.10,241.48 373.40,244.69 370.03,248.70"/>
    </edge>
    <edge id=":566531164_2" function="internal">
        <lane id=":566531164_2_0" index="0" allow="private emergency authority army vip passenger hov taxi bus coach delivery truck trailer motorcycle evehicle custom1 custom2" speed="16.66" length="22.87" shape="386.04,232.38 382.89,235.27 379.17,239.02 374.89,243.53 370.03,248.70"/>
    </edge>
    <edge id=":566531179_0" function="internal">
        <lane id=":566531179_0_0" index="0" allow="private emergency authority army vip passenger hov taxi bus coach delivery truck trailer motorcycle evehicle custom1 custom2" speed="12.50" length="0.27" shape="309.07,289.83 309.13,290.05"/>
        <lane id=":566531179_0_1" index="1" allow="private emergency authority army vip passenger hov taxi bus coach delivery truck trailer motorcycle evehicle custom1 custom2" speed="12.50" length="0.27" shape="312.15,288.95 312.23,289.25"/>
    </edge>
    <edge id=":566531180_0" function="internal">
        <lane id=":566531180_0_0" index="0" allow="private emergency authority army vip passenger hov taxi bus coach delivery truck trailer motorcycle evehicle custom1 custom2" speed="11.11" length="0.28" shape="353.17,411.77 353.09,411.47"/>
        <lane id=":566531180_0_1" index="1" allow="private emergency authority army vip passenger hov taxi bus coach delivery truck trailer motorcycle evehicle custom1 custom2" speed="11.11" length="0.28" shape="350.06,412.52 350.00,412.29"/>
    </edge>
    <edge id=":566531181_0" function="internal">
        <lane id=":566531181_0_0" index="0" allow="private emergency authority army vip passenger hov taxi bus coach delivery truck trailer motorcycle evehicle custom1 custom2" speed="11.11" length="0.24" shape="319.05,283.35 319.00,283.18"/>
        <lane id=":566531181_0_1" index="1" allow="private emergency authority army vip passenger hov taxi bus coach delivery truck trailer motorcycle evehicle custom1 custom2" speed="11.11" length="0.24" shape="315.95,284.18 315.88,283.89"/>
    </edge>
    <edge id=":5969622539_0" function="internal">
        <lane id=":5969622539_0_0" index="0" disallow="tram rail_urban rail rail_electric rail_fast ship" speed="19.44" length="8.19" shape="425.14,560.16 426.54,562.08 427.18,563.62 427.80,565.17 429.16,567.12"/>
        <lane id=":5969622539_0_1" index="1" disallow="tram rail_urban rail rail_electric rail_fast ship" speed="19.44" length="8.19" shape="427.52,558.01 428.93,559.95 429.58,561.50 430.21,563.06 431.58,565.03"/>
        <lane id=":5969622539_0_2" index="2" disallow="tram rail_urban rail rail_electric rail_fast ship" speed="19.44" length="8.19" shape="429.89,555.87 431.32,557.82 431.98,559.38 432.62,560.96 434.01,562.94"/>
        <lane id=":5969622539_0_3" index="3" disallow="tram rail_urban rail rail_electric rail_fast ship" speed="19.44" length="8.19" shape="429.89,555.87 431.70,557.49 433.19,558.34 434.66,559.19 436.43,560.85"/>
    </edge>
    <edge id=":6757403581_0" function="internal">
        <lane id=":6757403581_0_0" index="0" disallow="tram rail_urban rail rail_electric rail_fast ship" speed="13.89" length="8.19" shape="307.53,70.60 307.90,68.21 308.52,66.64 309.13,65.06 309.46,62.67"/>
        <lane id=":6757403581_0_1" index="1" disallow="tram rail_urban rail rail_electric rail_fast ship" speed="13.89" length="8.19" shape="307.53,70.60 307.40,68.20 306.92,66.58 306.43,64.97 306.26,62.57"/>
    </edge>
    <edge id=":6986805440_0" function="internal">
        <lane id=":6986805440_0_0" index="0" allow="private emergency authority army vip passenger hov taxi bus coach delivery truck trailer motorcycle evehicle custom1 custom2" speed="13.89" length="8.21" shape="459.71,212.96 461.52,211.38 463.02,210.59 464.53,209.81 466.37,208.25"/>
    </edge>
    <edge id=":888969327_0" function="internal">
        <lane id=":888969327_0_0" index="0" disallow="moped bicycle tram rail_urban rail rail_electric rail_fast ship" speed="16.66" length="9.45" shape="378.73,505.56 380.57,507.60 381.43,509.33 382.20,511.15 383.78,513.45"/>
    </edge>
    <edge id=":888969327_1" function="internal">
        <lane id=":888969327_1_0" index="0" allow="private emergency authority army vip passenger hov taxi bus coach delivery truck trailer motorcycle evehicle custom1 custom2" speed="15.28" length="8.89" shape="381.69,503.30 382.83,505.82 383.58,507.58 384.52,509.21 386.21,511.37"/>
        <lane id=":888969327_1_1" index="1" allow="private emergency authority army vip passenger hov taxi bus coach delivery truck trailer motorcycle evehicle custom1 custom2" speed="15.28" length="8.89" shape="384.57,501.90 385.60,504.20 386.27,505.81 387.11,507.31 388.64,509.28"/>
    </edge>
    <edge id=":9443678274_0" function="internal">
        <lane id=":9443678274_0_0" index="0" disallow="tram rail_urban rail rail_electric rail_fast ship" speed="3.65" length="4.67" shape="355.73,604.44 357.14,604.74 357.99,604.46 358.28,603.62 358.01,602.20"/>
    </edge>
    <edge id=":9443678275_0" function="internal">
        <lane id=":9443678275_0_0" index="0" disallow="tram rail_urban rail rail_electric rail_fast ship" speed="13.89" length="14.60" shape="362.22,537.96 352.03,527.51"/>
    </edge>
    <edge id=":9443678275_1" function="internal">
        <lane id=":9443678275_1_0" index="0" disallow="tram rail_urban rail rail_electric rail_fast ship" speed="7.88" length="4.28" shape="362.22,537.96 359.09,535.46 358.83,535.39"/>
    </edge>
    <edge id=":9443678275_2" function="internal">
        <lane id=":9443678275_2_0" index="0" disallow="tram rail_urban rail rail_electric rail_fast ship" speed="3.65" length="1.44" shape="362.22,537.96 360.82,537.63"/>
    </edge>
    <edge id=":9443678275_9" function="internal">
        <lane id=":9443678275_9_0" index="0" disallow="tram rail_urban rail rail_electric rail_fast ship" speed="7.88" length="10.19" shape="358.83,535.39 355.97,534.63 352.86,535.48 349.74,538.00"/>
    </edge>
    <edge id=":9443678275_10" function="internal">
        <lane id=":9443678275_10_0" index="0" disallow="tram rail_urban rail rail_electric rail_fast ship" speed="3.65" length="3.23" shape="360.82,537.63 359.96,537.88 359.65,538.72 359.89,540.15"/>
    </edge>
    <edge id=":9443678275_3" function="internal">
        <lane id=":9443678275_3_0" index="0" disallow="tram rail_urban rail rail_electric rail_fast ship" speed="6.36" length="9.04" shape="352.09,540.17 354.04,538.60 355.98,538.07 357.93,538.58 359.89,540.15"/>
    </edge>
    <edge id=":9443678275_4" function="internal">
        <lane id=":9443678275_4_0" index="0" disallow="tram rail_urban rail rail_electric rail_fast ship" speed="8.13" length="14.35" shape="352.09,540.17 354.38,536.91 355.13,533.71 354.35,530.57 352.03,527.51"/>
    </edge>
    <edge id=":9443678275_5" function="internal">
        <lane id=":9443678275_5_0" index="0" disallow="tram rail_urban rail rail_electric rail_fast ship" speed="3.65" length="4.67" shape="352.09,540.17 352.32,538.75 352.01,537.91 351.15,537.66 349.74,538.00"/>
    </edge>
    <edge id=":9443678275_6" function="internal">
        <lane id=":9443678275_6_0" index="0" disallow="tram rail_urban rail rail_electric rail_fast ship" speed="6.66" length="9.30" shape="349.78,529.79 351.26,531.76 351.75,533.79 351.25,535.86 349.74,538.00"/>
    </edge>
    <edge id=":9443678275_7" function="internal">
        <lane id=":9443678275_7_0" index="0" disallow="tram rail_urban rail rail_electric rail_fast ship" speed="13.89" length="14.47" shape="349.78,529.79 359.89,540.15"/>
    </edge>
    <edge id=":9443678275_8" function="internal">
        <lane id=":9443678275_8_0" index="0" disallow="tram rail_urban rail rail_electric rail_fast ship" speed="3.65" length="1.44" shape="349.78,529.79 351.20,530.06"/>
    </edge>
    <edge id=":9443678275_11" function="internal">
        <lane id=":9443678275_11_0" index="0" disallow="tram rail_urban rail rail_electric rail_fast ship" speed="3.65" length="3.23" shape="351.20,530.06 352.05,529.77 352.32,528.92 352.03,527.51"/>
    </edge>
    <edge id=":9443678278_0" function="internal">
        <lane id=":9443678278_0_0" index="0" disallow="tram rail_urban rail rail_electric rail_fast ship" speed="13.89" length="14.54" shape="348.87,524.38 338.41,514.28"/>
    </edge>
    <edge id=":9443678278_1" function="internal">
        <lane id=":9443678278_1_0" index="0" disallow="tram rail_urban rail rail_electric rail_fast ship" speed="7.94" length="4.21" shape="348.87,524.38 345.71,522.03 345.45,521.96"/>
    </edge>
    <edge id=":9443678278_2" function="internal">
        <lane id=":9443678278_2_0" index="0" disallow="tram rail_urban rail rail_electric rail_fast ship" speed="3.65" length="1.44" shape="348.87,524.38 347.45,524.10"/>
    </edge>
    <edge id=":9443678278_9" function="internal">
        <lane id=":9443678278_9_0" index="0" disallow="tram rail_urban rail rail_electric rail_fast ship" speed="7.94" length="10.12" shape="345.45,521.96 342.58,521.28 339.48,522.15 336.41,524.62"/>
    </edge>
    <edge id=":9443678278_10" function="internal">
        <lane id=":9443678278_10_0" index="0" disallow="tram rail_urban rail rail_electric rail_fast ship" speed="3.65" length="3.23" shape="347.45,524.10 346.61,524.39 346.33,525.24 346.61,526.65"/>
    </edge>
    <edge id=":9443678278_3" function="internal">
        <lane id=":9443678278_3_0" index="0" disallow="tram rail_urban rail rail_electric rail_fast ship" speed="6.44" length="9.03" shape="338.75,526.80 340.69,525.24 342.64,524.69 344.62,525.16 346.61,526.65"/>
    </edge>
    <edge id=":9443678278_4" function="internal">
        <lane id=":9443678278_4_0" index="0" disallow="tram rail_urban rail rail_electric rail_fast ship" speed="8.03" length="14.28" shape="338.75,526.80 341.00,523.57 341.70,520.41 340.83,517.31 338.41,514.28"/>
    </edge>
    <edge id=":9443678278_5" function="internal">
        <lane id=":9443678278_5_0" index="0" disallow="tram rail_urban rail rail_electric rail_fast ship" speed="3.65" length="4.67" shape="338.75,526.80 338.98,525.38 338.67,524.54 337.81,524.29 336.41,524.62"/>
    </edge>
    <edge id=":9443678278_6" function="internal">
        <lane id=":9443678278_6_0" index="0" disallow="tram rail_urban rail rail_electric rail_fast ship" speed="6.55" length="9.13" shape="336.22,516.61 337.76,518.55 338.31,520.53 337.86,522.55 336.41,524.62"/>
    </edge>
    <edge id=":9443678278_7" function="internal">
        <lane id=":9443678278_7_0" index="0" disallow="tram rail_urban rail rail_electric rail_fast ship" speed="13.89" length="14.45" shape="336.22,516.61 346.61,526.65"/>
    </edge>
    <edge id=":9443678278_8" function="internal">
        <lane id=":9443678278_8_0" index="0" disallow="tram rail_urban rail rail_electric rail_fast ship" speed="3.65" length="1.44" shape="336.22,516.61 337.64,516.85"/>
    </edge>
    <edge id=":9443678278_11" function="internal">
        <lane id=":9443678278_11_0" index="0" disallow="tram rail_urban rail rail_electric rail_fast ship" speed="3.65" length="3.23" shape="337.64,516.85 338.48,516.54 338.74,515.68 338.41,514.28"/>
    </edge>
    <edge id=":9443678281_0" function="internal">
        <lane id=":9443678281_0_0" index="0" disallow="tram rail_urban rail rail_electric rail_fast ship" speed="3.65" length="4.67" shape="386.54,583.95 387.28,585.19 388.06,585.63 388.88,585.27 389.74,584.11"/>
    </edge>
    <edge id=":9443678291_0" function="internal">
        <lane id=":9443678291_0_0" index="0" disallow="tram rail_urban rail rail_electric rail_fast ship" speed="3.65" length="4.67" shape="315.69,589.89 316.78,590.85 317.65,591.03 318.32,590.43 318.79,589.07"/>
    </edge>
    <edge id=":cluster_9443678276_9443678287_0" function="internal">
        <lane id=":cluster_9443678276_9443678287_0_0" index="0" disallow="tram rail_urban rail rail_electric rail_fast ship" speed="6.61" length="9.03" shape="333.04,556.03 331.13,557.58 329.17,558.18 327.14,557.83 325.06,556.52"/>
    </edge>
    <edge id=":cluster_9443678276_9443678287_1" function="internal">
        <lane id=":cluster_9443678276_9443678287_1_0" index="0" disallow="tram rail_urban rail rail_electric rail_fast ship" speed="13.89" length="22.42" shape="333.04,556.03 330.89,560.53 329.12,566.97 327.08,573.00 324.15,576.26"/>
    </edge>
    <edge id=":cluster_9443678276_9443678287_2" function="internal">
        <lane id=":cluster_9443678276_9443678287_2_0" index="0" disallow="tram rail_urban rail rail_electric rail_fast ship" speed="11.15" length="27.34" shape="333.04,556.03 329.82,561.77 328.79,568.79 329.95,575.79 333.29,581.45"/>
    </edge>
    <edge id=":cluster_9443678276_9443678287_3" function="internal">
        <lane id=":cluster_9443678276_9443678287_3_0" index="0" disallow="tram rail_urban rail rail_electric rail_fast ship" speed="3.65" length="4.67" shape="333.04,556.03 332.81,557.45 333.13,558.29 333.98,558.54 335.39,558.20"/>
    </edge>
    <edge id=":cluster_9443678276_9443678287_4" function="internal">