<?xml version="1.0" encoding="UTF-8"?>

<!-- generated on 2023-07-19 16:30:23 by Eclipse SUMO netconvert Version 1.17.0
<configuration xmlns:xsi="http://www.w3.org/2001/XMLSchema-instance" xsi:noNamespaceSchemaLocation="http://sumo.dlr.de/xsd/netconvertConfiguration.xsd">

    <input>
        <sumo-net-file value="osm.net.xml.gz"/>
    </input>

    <output>
        <output-file value="osm.net.xml"/>
        <output.street-names value="true"/>
    </output>

    <processing>
        <geometry.min-radius.fix.railways value="false"/>
        <geometry.max-grade.fix value="false"/>
        <offset.disable-normalization value="true"/>
        <lefthand value="1"/>
    </processing>

    <junctions>
        <no-turnarounds value="true"/>
        <junctions.corner-detail value="5"/>
        <junctions.limit-turn-speed value="5.50"/>
        <rectangular-lane-cut value="0"/>
    </junctions>

    <pedestrian>
        <walkingareas value="0"/>
    </pedestrian>

</configuration>
-->

<net version="1.16" junctionCornerDetail="5" lefthand="true" limitTurnSpeed="5.50" xmlns:xsi="http://www.w3.org/2001/XMLSchema-instance" xsi:noNamespaceSchemaLocation="http://sumo.dlr.de/xsd/net_file.xsd">

    <location netOffset="-367648.73,-145940.18" convBoundary="0.00,0.00,718.93,754.27" origBoundary="103.810363,1.320078,103.816825,1.326902" projParameter="+proj=utm +zone=48 +ellps=WGS84 +datum=WGS84 +units=m +no_defs"/>

    <type id="highway.bridleway" priority="1" numLanes="1" speed="2.78" allow="pedestrian" oneway="1" width="2.00"/>
    <type id="highway.bus_guideway" priority="1" numLanes="1" speed="27.78" allow="bus" oneway="1"/>
    <type id="highway.cycleway" priority="1" numLanes="1" speed="5.56" allow="bicycle" oneway="0" width="1.00"/>
    <type id="highway.footway" priority="1" numLanes="1" speed="2.78" allow="pedestrian" oneway="1" width="2.00"/>
    <type id="highway.ford" priority="1" numLanes="1" speed="2.78" allow="army" oneway="0"/>
    <type id="highway.living_street" priority="2" numLanes="1" speed="2.78" disallow="tram rail_urban rail rail_electric rail_fast ship" oneway="0"/>
    <type id="highway.motorway" priority="14" numLanes="2" speed="39.44" allow="private emergency authority army vip passenger hov taxi bus coach delivery truck trailer motorcycle evehicle custom1 custom2" oneway="1"/>
    <type id="highway.motorway_link" priority="9" numLanes="1" speed="22.22" allow="private emergency authority army vip passenger hov taxi bus coach delivery truck trailer motorcycle evehicle custom1 custom2" oneway="1"/>
    <type id="highway.path" priority="1" numLanes="1" speed="5.56" allow="pedestrian bicycle" oneway="0" width="2.00"/>
    <type id="highway.pedestrian" priority="1" numLanes="1" speed="2.78" allow="pedestrian" oneway="1" width="2.00"/>
    <type id="highway.primary" priority="12" numLanes="2" speed="27.78" disallow="tram rail_urban rail rail_electric rail_fast ship" oneway="0"/>
    <type id="highway.primary_link" priority="7" numLanes="1" speed="22.22" disallow="tram rail_urban rail rail_electric rail_fast ship" oneway="0"/>
    <type id="highway.raceway" priority="15" numLanes="2" speed="83.33" allow="vip" oneway="0"/>
    <type id="highway.residential" priority="3" numLanes="1" speed="13.89" disallow="tram rail_urban rail rail_electric rail_fast ship" oneway="0"/>
    <type id="highway.secondary" priority="11" numLanes="1" speed="27.78" disallow="tram rail_urban rail rail_electric rail_fast ship" oneway="0"/>
    <type id="highway.secondary_link" priority="6" numLanes="1" speed="22.22" disallow="tram rail_urban rail rail_electric rail_fast ship" oneway="0"/>
    <type id="highway.service" priority="1" numLanes="1" speed="5.56" allow="pedestrian delivery bicycle" oneway="0"/>
    <type id="highway.stairs" priority="1" numLanes="1" speed="1.39" allow="pedestrian" oneway="1" width="2.00"/>
    <type id="highway.step" priority="1" numLanes="1" speed="1.39" allow="pedestrian" oneway="1" width="2.00"/>
    <type id="highway.steps" priority="1" numLanes="1" speed="1.39" allow="pedestrian" oneway="1" width="2.00"/>
    <type id="highway.tertiary" priority="10" numLanes="1" speed="22.22" disallow="tram rail_urban rail rail_electric rail_fast ship" oneway="0"/>
    <type id="highway.tertiary_link" priority="5" numLanes="1" speed="22.22" disallow="tram rail_urban rail rail_electric rail_fast ship" oneway="0"/>
    <type id="highway.track" priority="1" numLanes="1" speed="5.56" allow="pedestrian motorcycle moped bicycle" oneway="0"/>
    <type id="highway.trunk" priority="13" numLanes="2" speed="27.78" disallow="pedestrian bicycle tram rail_urban rail rail_electric rail_fast ship" oneway="0"/>
    <type id="highway.trunk_link" priority="8" numLanes="1" speed="22.22" disallow="pedestrian bicycle tram rail_urban rail rail_electric rail_fast ship" oneway="0"/>
    <type id="highway.unclassified" priority="4" numLanes="1" speed="13.89" disallow="tram rail_urban rail rail_electric rail_fast ship" oneway="0"/>
    <type id="highway.unsurfaced" priority="1" numLanes="1" speed="8.33" disallow="tram rail_urban rail rail_electric rail_fast ship" oneway="0"/>
    <type id="railway.highspeed" priority="21" numLanes="1" speed="69.44" allow="rail_fast" oneway="1"/>
    <type id="railway.light_rail" priority="19" numLanes="1" speed="27.78" allow="rail_urban" oneway="1"/>
    <type id="railway.preserved" priority="16" numLanes="1" speed="27.78" allow="rail" oneway="1"/>
    <type id="railway.rail" priority="20" numLanes="1" speed="44.44" allow="rail" oneway="1"/>
    <type id="railway.subway" priority="18" numLanes="1" speed="27.78" allow="rail_urban" oneway="1"/>
    <type id="railway.tram" priority="17" numLanes="1" speed="13.89" allow="tram" oneway="1"/>

    <edge id=":1711829319_0" function="internal">
        <lane id=":1711829319_0_0" index="0" disallow="pedestrian bicycle tram rail_urban rail rail_electric rail_fast ship" speed="13.89" length="0.25" shape="354.47,576.34 354.49,576.52"/>
        <lane id=":1711829319_0_1" index="1" disallow="pedestrian bicycle tram rail_urban rail rail_electric rail_fast ship" speed="13.89" length="0.25" shape="357.64,575.89 357.67,576.21"/>
    </edge>
    <edge id=":175296095_0" function="internal">
        <lane id=":175296095_0_0" index="0" disallow="pedestrian bicycle tram rail_urban rail rail_electric rail_fast ship" speed="19.44" length="0.34" shape="337.25,348.17 337.20,347.94"/>
        <lane id=":175296095_0_1" index="1" disallow="pedestrian bicycle tram rail_urban rail rail_electric rail_fast ship" speed="19.44" length="0.34" shape="334.11,348.83 334.05,348.49"/>
        <lane id=":175296095_0_2" index="2" disallow="pedestrian bicycle tram rail_urban rail rail_electric rail_fast ship" speed="19.44" length="0.34" shape="330.98,349.48 330.90,349.05"/>
    </edge>
    <edge id=":1773495422_0" function="internal">
        <lane id=":1773495422_0_0" index="0" disallow="pedestrian bicycle tram rail_urban rail rail_electric rail_fast ship" speed="13.89" length="0.37" shape="330.58,239.63 330.56,239.46 330.54,239.35 330.52,239.24 330.48,239.07"/>
        <lane id=":1773495422_0_1" index="1" disallow="pedestrian bicycle tram rail_urban rail rail_electric rail_fast ship" speed="13.89" length="0.37" shape="327.40,240.01 327.40,239.95 327.39,239.91 327.38,239.88 327.37,239.82"/>
    </edge>
    <edge id=":1773495429_0" function="internal">
        <lane id=":1773495429_0_0" index="0" disallow="pedestrian bicycle tram rail_urban rail rail_electric rail_fast ship" speed="13.89" length="7.47" shape="332.63,253.91 331.41,246.62"/>
        <lane id=":1773495429_0_1" index="1" disallow="pedestrian bicycle tram rail_urban rail rail_electric rail_fast ship" speed="13.89" length="7.47" shape="329.48,254.44 328.24,247.00"/>
    </edge>
    <edge id=":1773495429_2" function="internal">
        <lane id=":1773495429_2_0" index="0" disallow="pedestrian bicycle tram rail_urban rail rail_electric rail_fast ship" speed="9.84" length="7.43" shape="325.49,253.59 326.81,251.80 327.76,250.51 328.26,249.11 328.24,247.00"/>
    </edge>
    <edge id=":1773495447_0" function="internal">
        <lane id=":1773495447_0_0" index="0" disallow="pedestrian bicycle tram rail_urban rail rail_electric rail_fast ship" speed="13.89" length="13.45" shape="290.21,253.31 290.65,257.26 290.10,260.04 289.49,262.85 289.79,266.83"/>
        <lane id=":1773495447_0_1" index="1" disallow="pedestrian bicycle tram rail_urban rail rail_electric rail_fast ship" speed="13.89" length="13.45" shape="290.21,253.31 292.92,266.16"/>
        <lane id=":1773495447_0_2" index="2" disallow="pedestrian bicycle tram rail_urban rail rail_electric rail_fast ship" speed="13.89" length="13.45" shape="293.31,252.52 296.05,265.50"/>
        <lane id=":1773495447_0_3" index="3" disallow="pedestrian bicycle tram rail_urban rail rail_electric rail_fast ship" speed="13.89" length="13.45" shape="293.31,252.52 294.74,256.29 296.34,258.65 297.90,261.02 299.18,264.83"/>
    </edge>
    <edge id=":1773495447_4" function="internal">
        <lane id=":1773495447_4_0" index="0" disallow="pedestrian bicycle tram rail_urban rail rail_electric rail_fast ship" speed="9.06" length="14.61" shape="293.31,252.52 294.80,256.54 296.91,259.44 299.67,261.22 303.06,261.88"/>
    </edge>
    <edge id=":241824678_0" function="internal">
        <lane id=":241824678_0_0" index="0" disallow="pedestrian bicycle tram rail_urban rail rail_electric rail_fast ship" speed="13.89" length="0.60" shape="463.05,377.17 463.13,377.14 463.19,377.12 463.25,377.10 463.33,377.09"/>
        <lane id=":241824678_0_1" index="1" disallow="pedestrian bicycle tram rail_urban rail rail_electric rail_fast ship" speed="13.89" length="0.60" shape="461.88,374.19 462.12,374.09 462.30,374.04 462.47,373.99 462.74,373.94"/>
    </edge>
    <edge id=":241824681_0" function="internal">
        <lane id=":241824681_0_0" index="0" disallow="pedestrian bicycle tram rail_urban rail rail_electric rail_fast ship" speed="13.89" length="8.18" shape="573.81,293.08 571.41,293.00 569.79,292.56 568.17,292.10 565.77,291.97"/>
        <lane id=":241824681_0_1" index="1" disallow="pedestrian bicycle tram rail_urban rail rail_electric rail_fast ship" speed="13.89" length="8.18" shape="573.81,293.08 571.43,293.50 569.87,294.16 568.30,294.80 565.93,295.17"/>
    </edge>
    <edge id=":241824686_0" function="internal">
        <lane id=":241824686_0_0" index="0" disallow="pedestrian bicycle tram rail_urban rail rail_electric rail_fast ship" speed="13.89" length="21.26" shape="318.92,325.10 297.68,328.39"/>
        <lane id=":241824686_0_1" index="1" disallow="pedestrian bicycle tram rail_urban rail rail_electric rail_fast ship" speed="13.89" length="21.26" shape="319.36,328.27 298.35,331.54"/>
        <lane id=":241824686_0_2" index="2" disallow="pedestrian bicycle tram rail_urban rail rail_electric rail_fast ship" speed="13.89" length="21.26" shape="319.79,331.44 299.03,334.69"/>
    </edge>
    <edge id=":241824686_3" function="internal">
        <lane id=":241824686_3_0" index="0" disallow="pedestrian bicycle tram rail_urban rail rail_electric rail_fast ship" speed="7.17" length="4.13" shape="319.79,331.44 315.99,332.34 315.80,332.45"/>
        <lane id=":241824686_3_1" index="1" disallow="pedestrian bicycle tram rail_urban rail rail_electric rail_fast ship" speed="6.34" length="4.26" shape="319.79,331.44 317.38,332.13 316.04,333.26"/>
    </edge>
    <edge id=":241824686_9" function="internal">
        <lane id=":241824686_9_0" index="0" disallow="pedestrian bicycle tram rail_urban rail rail_electric rail_fast ship" speed="7.17" length="7.74" shape="315.80,332.45 313.47,333.82 312.21,335.87 312.22,338.51"/>
    </edge>
    <edge id=":241824686_10" function="internal">
        <lane id=":241824686_10_0" index="0" disallow="pedestrian bicycle tram rail_urban rail rail_electric rail_fast ship" speed="6.34" length="4.78" shape="316.04,333.26 315.84,333.42 315.16,335.32 315.34,337.82"/>
    </edge>
    <edge id=":241824686_5" function="internal">
        <lane id=":241824686_5_0" index="0" disallow="pedestrian bicycle tram rail_urban rail rail_electric rail_fast ship" speed="13.89" length="18.22" shape="301.99,322.14 305.97,339.88"/>
        <lane id=":241824686_5_1" index="1" disallow="pedestrian bicycle tram rail_urban rail rail_electric rail_fast ship" speed="13.89" length="18.22" shape="305.11,321.43 309.09,339.20"/>
        <lane id=":241824686_5_2" index="2" disallow="pedestrian bicycle tram rail_urban rail rail_electric rail_fast ship" speed="13.89" length="18.22" shape="308.22,320.72 312.22,338.51"/>
        <lane id=":241824686_5_3" index="3" disallow="pedestrian bicycle tram rail_urban rail rail_electric rail_fast ship" speed="13.89" length="18.22" shape="311.34,320.00 315.34,337.82"/>
    </edge>
    <edge id=":241824687_0" function="internal">
        <lane id=":241824687_0_0" index="0" disallow="pedestrian bicycle tram rail_urban rail rail_electric rail_fast ship" speed="8.94" length="7.54" shape="272.35,326.76 270.69,328.66 269.16,330.04 267.77,330.91 266.50,331.27"/>
    </edge>
    <edge id=":241824687_1" function="internal">
        <lane id=":241824687_1_0" index="0" disallow="pedestrian bicycle tram rail_urban rail rail_electric rail_fast ship" speed="13.89" length="7.94" shape="274.38,330.54 266.50,331.27"/>
        <lane id=":241824687_1_1" index="1" disallow="pedestrian bicycle tram rail_urban rail rail_electric rail_fast ship" speed="13.89" length="7.94" shape="274.67,333.72 266.77,334.46"/>
        <lane id=":241824687_1_2" index="2" disallow="pedestrian bicycle tram rail_urban rail rail_electric rail_fast ship" speed="13.89" length="7.94" shape="274.97,336.91 267.04,337.65"/>
    </edge>
    <edge id=":241824702_0" function="internal">
        <lane id=":241824702_0_0" index="0" disallow="pedestrian bicycle tram rail_urban rail rail_electric rail_fast ship" speed="13.89" length="17.38" shape="342.95,293.19 341.24,289.98 339.48,286.67 337.85,282.61 336.55,277.14"/>
    </edge>
    <edge id=":241824702_1" function="internal">
        <lane id=":241824702_1_0" index="0" disallow="pedestrian bicycle tram rail_urban rail rail_electric rail_fast ship" speed="13.89" length="17.37" shape="338.70,294.45 336.55,277.14"/>
        <lane id=":241824702_1_1" index="1" disallow="pedestrian bicycle tram rail_urban rail rail_electric rail_fast ship" speed="13.89" length="17.37" shape="335.52,294.85 333.39,277.68"/>
    </edge>
    <edge id=":241827471_0" function="internal">
        <lane id=":241827471_0_0" index="0" disallow="pedestrian bicycle tram rail_urban rail rail_electric rail_fast ship" speed="19.44" length="0.30" shape="319.81,351.29 319.87,351.61"/>
        <lane id=":241827471_0_1" index="1" disallow="pedestrian bicycle tram rail_urban rail rail_electric rail_fast ship" speed="19.44" length="0.30" shape="322.95,350.70 323.01,351.00"/>
        <lane id=":241827471_0_2" index="2" disallow="pedestrian bicycle tram rail_urban rail rail_electric rail_fast ship" speed="19.44" length="0.30" shape="326.10,350.11 326.15,350.38"/>
    </edge>
    <edge id=":241837432_0" function="internal">
        <lane id=":241837432_0_0" index="0" disallow="pedestrian bicycle tram rail_urban rail rail_electric rail_fast ship" speed="8.45" length="5.21" shape="374.82,452.39 374.58,450.90 374.68,449.84 375.10,448.83 375.82,447.46"/>
    </edge>
    <edge id=":241837432_1" function="internal">
        <lane id=":241837432_1_0" index="0" disallow="pedestrian bicycle tram rail_urban rail rail_electric rail_fast ship" speed="19.44" length="6.11" shape="371.70,453.10 371.53,451.31 371.77,450.04 371.99,448.78 371.77,447.00"/>
        <lane id=":241837432_1_1" index="1" disallow="pedestrian bicycle tram rail_urban rail rail_electric rail_fast ship" speed="19.44" length="6.11" shape="368.58,453.81 368.41,452.03 368.66,450.77 368.88,449.52 368.66,447.75"/>
        <lane id=":241837432_1_2" index="2" disallow="pedestrian bicycle tram rail_urban rail rail_electric rail_fast ship" speed="19.44" length="6.11" shape="365.46,454.52 365.30,452.75 365.54,451.50 365.76,450.25 365.54,448.50"/>
        <lane id=":241837432_1_3" index="3" disallow="pedestrian bicycle tram rail_urban rail rail_electric rail_fast ship" speed="19.44" length="6.11" shape="362.34,455.24 362.18,453.47 362.42,452.23 362.65,450.99 362.43,449.24"/>
    </edge>
    <edge id=":241837440_0" function="internal">
        <lane id=":241837440_0_0" index="0" disallow="pedestrian bicycle tram rail_urban rail rail_electric rail_fast ship" speed="19.44" length="17.72" shape="365.89,424.94 362.08,407.99"/>
        <lane id=":241837440_0_1" index="1" disallow="pedestrian bicycle tram rail_urban rail rail_electric rail_fast ship" speed="19.44" length="17.72" shape="362.80,425.77 358.94,408.59"/>
        <lane id=":241837440_0_2" index="2" disallow="pedestrian bicycle tram rail_urban rail rail_electric rail_fast ship" speed="19.44" length="17.72" shape="359.71,426.59 355.79,409.19"/>
        <lane id=":241837440_0_3" index="3" disallow="pedestrian bicycle tram rail_urban rail rail_electric rail_fast ship" speed="19.44" length="17.72" shape="356.61,427.42 352.65,409.79"/>
    </edge>
    <edge id=":241837440_4" function="internal">
        <lane id=":241837440_4_0" index="0" disallow="pedestrian bicycle tram rail_urban rail rail_electric rail_fast ship" speed="13.89" length="20.78" shape="350.36,423.69 356.56,422.30 360.75,421.12 364.82,419.55 370.65,417.02"/>
        <lane id=":241837440_4_1" index="1" disallow="pedestrian bicycle tram rail_urban rail rail_electric rail_fast ship" speed="13.89" length="20.78" shape="349.69,420.56 355.70,419.21 359.77,418.06 363.71,416.54 369.37,414.09"/>
        <lane id=":241837440_4_2" index="2" disallow="pedestrian bicycle tram rail_urban rail rail_electric rail_fast ship" speed="13.89" length="20.78" shape="349.02,417.43 354.85,416.13 358.79,415.01 362.61,413.53 368.09,411.16"/>
    </edge>
    <edge id=":241837440_7" function="internal">
        <lane id=":241837440_7_0" index="0" disallow="pedestrian bicycle tram rail_urban rail rail_electric rail_fast ship" speed="7.48" length="12.07" shape="349.02,417.43 352.45,416.27 354.73,414.51 355.84,412.15 355.79,409.19"/>
        <lane id=":241837440_7_1" index="1" disallow="pedestrian bicycle tram rail_urban rail rail_electric rail_fast ship" speed="6.72" length="9.54" shape="349.02,417.43 351.08,416.56 352.37,415.00 352.90,412.74 352.65,409.79"/>
    </edge>
    <edge id=":241837519_0" function="internal">
        <lane id=":241837519_0_0" index="0" disallow="pedestrian bicycle tram rail_urban rail rail_electric rail_fast ship" speed="16.66" length="20.47" shape="318.87,429.14 325.03,428.55 329.23,428.03 333.40,427.29 339.46,426.02"/>
        <lane id=":241837519_0_1" index="1" disallow="pedestrian bicycle tram rail_urban rail rail_electric rail_fast ship" speed="16.66" length="20.47" shape="318.57,425.96 324.62,425.38 328.75,424.87 332.84,424.14 338.79,422.89"/>
        <lane id=":241837519_0_2" index="2" disallow="pedestrian bicycle tram rail_urban rail rail_electric rail_fast ship" speed="16.66" length="20.47" shape="318.27,422.77 324.21,422.20 328.26,421.70 332.28,420.99 338.12,419.76"/>
    </edge>
    <edge id=":241837519_3" function="internal">
        <lane id=":241837519_3_0" index="0" disallow="pedestrian bicycle tram rail_urban rail rail_electric rail_fast ship" speed="13.89" length="17.87" shape="322.47,417.06 324.05,422.07 325.87,425.27 327.69,428.47 329.31,433.47"/>
        <lane id=":241837519_3_1" index="1" disallow="pedestrian bicycle tram rail_urban rail rail_electric rail_fast ship" speed="13.89" length="17.87" shape="325.60,416.39 327.18,421.39 328.99,424.59 330.82,427.78 332.43,432.79"/>
    </edge>
    <edge id=":241837519_5" function="internal">
        <lane id=":241837519_5_0" index="0" disallow="pedestrian bicycle tram rail_urban rail rail_electric rail_fast ship" speed="7.97" length="14.08" shape="328.73,415.72 330.07,419.51 332.20,421.97 335.10,423.10 338.79,422.89"/>
        <lane id=":241837519_5_1" index="1" disallow="pedestrian bicycle tram rail_urban rail rail_electric rail_fast ship" speed="6.47" length="8.92" shape="331.86,415.05 332.71,417.51 334.04,419.12 335.84,419.87 338.12,419.76"/>
    </edge>
    <edge id=":241837526_0" function="internal">
        <lane id=":241837526_0_0" index="0" disallow="pedestrian bicycle tram rail_urban rail rail_electric rail_fast ship" speed="13.89" length="14.32" shape="293.24,283.08 293.81,287.49 293.50,290.85 292.57,293.79 291.27,296.95"/>
    </edge>
    <edge id=":241837526_1" function="internal">
        <lane id=":241837526_1_0" index="0" disallow="pedestrian bicycle tram rail_urban rail rail_electric rail_fast ship" speed="13.89" length="14.37" shape="293.24,283.08 296.42,297.15"/>
        <lane id=":241837526_1_1" index="1" disallow="pedestrian bicycle tram rail_urban rail rail_electric rail_fast ship" speed="13.89" length="14.37" shape="296.37,282.42 299.55,296.45"/>
        <lane id=":241837526_1_2" index="2" disallow="pedestrian bicycle tram rail_urban rail rail_electric rail_fast ship" speed="13.89" length="14.37" shape="299.50,281.75 302.67,295.75"/>
        <lane id=":241837526_1_3" index="3" disallow="pedestrian bicycle tram rail_urban rail rail_electric rail_fast ship" speed="13.89" length="14.37" shape="302.63,281.09 305.79,295.05"/>
    </edge>
    <edge id=":241837534_0" function="internal">
        <lane id=":241837534_0_0" index="0" disallow="pedestrian bicycle tram rail_urban rail rail_electric rail_fast ship" speed="13.89" length="15.13" shape="329.16,455.37 331.53,457.95 333.73,460.41 335.56,463.53 336.86,468.05"/>
    </edge>
    <edge id=":241837534_1" function="internal">
        <lane id=":241837534_1_0" index="0" disallow="pedestrian bicycle tram rail_urban rail rail_electric rail_fast ship" speed="13.89" length="15.29" shape="333.65,453.17 336.86,468.05"/>
        <lane id=":241837534_1_1" index="1" disallow="pedestrian bicycle tram rail_urban rail rail_electric rail_fast ship" speed="13.89" length="15.29" shape="336.77,452.48 340.01,467.50"/>
    </edge>
    <edge id=":241837612_0" function="internal">
        <lane id=":241837612_0_0" index="0" disallow="pedestrian bicycle tram rail_urban rail rail_electric rail_fast ship" speed="16.66" length="21.19" shape="269.66,431.75 276.68,431.96 282.20,432.85 286.67,433.98 290.52,434.94"/>
    </edge>
    <edge id=":241837612_1" function="internal">
        <lane id=":241837612_1_0" index="0" disallow="pedestrian bicycle tram rail_urban rail rail_electric rail_fast ship" speed="19.44" length="21.18" shape="269.66,431.75 290.84,430.83"/>
        <lane id=":241837612_1_1" index="1" disallow="pedestrian bicycle tram rail_urban rail rail_electric rail_fast ship" speed="19.44" length="21.18" shape="269.56,428.55 290.71,427.63"/>
        <lane id=":241837612_1_2" index="2" disallow="pedestrian bicycle tram rail_urban rail rail_electric rail_fast ship" speed="19.44" length="21.18" shape="269.45,425.35 290.59,424.43"/>
    </edge>
    <edge id=":241854029_0" function="internal">
        <lane id=":241854029_0_0" index="0" disallow="pedestrian bicycle tram rail_urban rail rail_electric rail_fast ship" speed="13.89" length="14.98" shape="402.04,408.68 404.07,405.84 406.01,403.22 408.66,400.82 412.77,398.63"/>
    </edge>
    <edge id=":241854029_1" function="internal">
        <lane id=":241854029_1_0" index="0" disallow="pedestrian bicycle tram rail_urban rail rail_electric rail_fast ship" speed="13.89" length="15.15" shape="398.96,404.68 412.77,398.63"/>
        <lane id=":241854029_1_1" index="1" disallow="pedestrian bicycle tram rail_urban rail rail_electric rail_fast ship" speed="13.89" length="15.15" shape="397.68,401.75 411.56,395.66"/>
        <lane id=":241854029_1_2" index="2" disallow="pedestrian bicycle tram rail_urban rail rail_electric rail_fast ship" speed="13.89" length="15.15" shape="396.40,398.81 410.35,392.70"/>
    </edge>
    <edge id=":241854039_0" function="internal">
        <lane id=":241854039_0_0" index="0" disallow="pedestrian bicycle tram rail_urban rail rail_electric rail_fast ship" speed="13.89" length="0.10" shape="569.64,359.19 569.56,359.20"/>
        <lane id=":241854039_0_1" index="1" disallow="pedestrian bicycle tram rail_urban rail rail_electric rail_fast ship" speed="13.89" length="0.10" shape="569.14,356.03 569.22,356.02"/>
    </edge>
    <edge id=":241907122_0" function="internal">
        <lane id=":241907122_0_0" index="0" disallow="pedestrian bicycle tram rail_urban rail rail_electric rail_fast ship" speed="19.44" length="14.36" shape="378.68,476.51 377.98,472.32 377.88,469.39 377.77,466.46 377.07,462.27"/>
        <lane id=":241907122_0_1" index="1" disallow="pedestrian bicycle tram rail_urban rail rail_electric rail_fast ship" speed="19.44" length="14.36" shape="375.56,477.22 374.86,473.04 374.76,470.11 374.65,467.18 373.95,462.99"/>
        <lane id=":241907122_0_2" index="2" disallow="pedestrian bicycle tram rail_urban rail rail_electric rail_fast ship" speed="19.44" length="14.36" shape="372.44,477.94 371.74,473.75 371.64,470.82 371.53,467.89 370.83,463.70"/>
        <lane id=":241907122_0_3" index="3" disallow="pedestrian bicycle tram rail_urban rail rail_electric rail_fast ship" speed="19.44" length="14.36" shape="369.32,478.65 368.62,474.46 368.52,471.53 368.41,468.60 367.71,464.41"/>
        <lane id=":241907122_0_4" index="4" disallow="pedestrian bicycle tram rail_urban rail rail_electric rail_fast ship" speed="19.44" length="14.36" shape="369.32,478.65 368.13,474.57 366.96,471.89 365.78,469.20 364.59,465.12"/>
    </edge>
    <edge id=":241907122_5" function="internal">
        <lane id=":241907122_5_0" index="0" disallow="pedestrian bicycle tram rail_urban rail rail_electric rail_fast ship" speed="8.31" length="14.75" shape="369.32,478.65 367.87,474.74 365.62,472.16 362.57,470.90 358.71,470.97"/>
    </edge>
    <edge id=":241907130_0" function="internal">
        <lane id=":241907130_0_0" index="0" disallow="pedestrian bicycle tram rail_urban rail rail_electric rail_fast ship" speed="12.06" length="14.49" shape="347.68,476.05 345.53,479.53 344.19,482.96 343.65,486.32 343.92,489.62"/>
    </edge>
    <edge id=":241907130_1" function="internal">
        <lane id=":241907130_1_0" index="0" disallow="pedestrian bicycle tram rail_urban rail rail_electric rail_fast ship" speed="13.89" length="14.65" shape="338.22,475.79 340.78,490.26"/>
        <lane id=":241907130_1_1" index="1" disallow="pedestrian bicycle tram rail_urban rail rail_electric rail_fast ship" speed="13.89" length="14.65" shape="341.37,475.24 343.92,489.62"/>
    </edge>
    <edge id=":392296096_0" function="internal">
        <lane id=":392296096_0_0" index="0" disallow="pedestrian bicycle tram rail_urban rail rail_electric rail_fast ship" speed="19.44" length="8.48" shape="381.28,503.11 381.33,500.58 382.12,498.84 382.87,497.11 382.81,494.59"/>
        <lane id=":392296096_0_1" index="1" disallow="pedestrian bicycle tram rail_urban rail rail_electric rail_fast ship" speed="19.44" length="8.48" shape="378.13,503.68 378.19,501.19 378.99,499.48 379.74,497.78 379.69,495.31"/>
        <lane id=":392296096_0_2" index="2" disallow="pedestrian bicycle tram rail_urban rail rail_electric rail_fast ship" speed="19.44" length="8.48" shape="378.13,503.68 376.57,496.02"/>
        <lane id=":392296096_0_3" index="3" disallow="pedestrian bicycle tram rail_urban rail rail_electric rail_fast ship" speed="19.44" length="8.48" shape="378.13,503.68 377.22,501.43 375.86,500.19 374.47,498.96 373.45,496.73"/>
    </edge>
    <edge id=":4713947188_0" function="internal">
        <lane id=":4713947188_0_0" index="0" disallow="pedestrian bicycle tram rail_urban rail rail_electric rail_fast ship" speed="13.89" length="8.03" shape="521.98,294.15 519.58,294.02 517.94,293.58 516.31,293.17 513.91,293.18"/>
        <lane id=":4713947188_0_1" index="1" disallow="pedestrian bicycle tram rail_urban rail rail_electric rail_fast ship" speed="13.89" length="8.03" shape="522.14,297.34 519.79,297.21 518.19,296.77 516.60,296.36 514.26,296.36"/>
        <lane id=":4713947188_0_2" index="2" disallow="pedestrian bicycle tram rail_urban rail rail_electric rail_fast ship" speed="13.89" length="8.03" shape="522.14,297.34 519.86,297.71 518.36,298.36 516.87,299.05 514.60,299.54"/>
    </edge>
    <edge id=":4714136138_0" function="internal">
        <lane id=":4714136138_0_0" index="0" disallow="pedestrian bicycle tram rail_urban rail rail_electric rail_fast ship" speed="13.89" length="8.21" shape="401.64,308.27 399.24,308.37 397.57,308.06 395.90,307.75 393.50,307.85"/>
        <lane id=":4714136138_0_1" index="1" disallow="pedestrian bicycle tram rail_urban rail rail_electric rail_fast ship" speed="13.89" length="8.21" shape="402.11,311.44 399.70,311.54 398.03,311.23 396.37,310.92 393.96,311.02"/>
        <lane id=":4714136138_0_2" index="2" disallow="pedestrian bicycle tram rail_urban rail rail_electric rail_fast ship" speed="13.89" length="8.21" shape="402.57,314.61 400.16,314.71 398.50,314.39 396.83,314.08 394.42,314.18"/>
        <lane id=":4714136138_0_3" index="3" disallow="pedestrian bicycle tram rail_urban rail rail_electric rail_fast ship" speed="13.89" length="8.21" shape="402.57,314.61 400.24,315.20 398.73,315.98 397.22,316.75 394.89,317.35"/>
    </edge>
    <edge id=":4747767715_0" function="internal">
        <lane id=":4747767715_0_0" index="0" disallow="pedestrian bicycle tram rail_urban rail rail_electric rail_fast ship" speed="13.89" length="0.28" shape="514.84,367.73 515.10,367.69"/>