<?xml version="1.0" encoding="UTF-8"?>

<!-- generated on 2023-07-17 16:29:29 by Eclipse SUMO netconvert Version 1.17.0
<configuration xmlns:xsi="http://www.w3.org/2001/XMLSchema-instance" xsi:noNamespaceSchemaLocation="http://sumo.dlr.de/xsd/netconvertConfiguration.xsd">

    <input>
        <sumo-net-file value="osm.net.xml.gz"/>
    </input>

    <output>
        <output-file value="osm.net.xml"/>
        <output.street-names value="true"/>
    </output>

    <processing>
        <geometry.min-radius.fix.railways value="false"/>
        <geometry.max-grade.fix value="false"/>
        <offset.disable-normalization value="true"/>
        <lefthand value="1"/>
    </processing>

    <junctions>
        <no-turnarounds value="true"/>
        <junctions.corner-detail value="5"/>
        <junctions.limit-turn-speed value="5.50"/>
        <rectangular-lane-cut value="0"/>
    </junctions>

    <pedestrian>
        <walkingareas value="0"/>
    </pedestrian>

</configuration>
-->

<net version="1.16" junctionCornerDetail="5" lefthand="true" limitTurnSpeed="5.50" xmlns:xsi="http://www.w3.org/2001/XMLSchema-instance" xsi:noNamespaceSchemaLocation="http://sumo.dlr.de/xsd/net_file.xsd">

    <location netOffset="-371951.47,-141604.48" convBoundary="0.00,0.00,475.92,393.40" origBoundary="103.849052,1.280878,103.853329,1.284437" projParameter="+proj=utm +zone=48 +ellps=WGS84 +datum=WGS84 +units=m +no_defs"/>

    <type id="highway.bridleway" priority="1" numLanes="1" speed="2.78" allow="pedestrian" oneway="1" width="2.00"/>
    <type id="highway.bus_guideway" priority="1" numLanes="1" speed="27.78" allow="bus" oneway="1"/>
    <type id="highway.cycleway" priority="1" numLanes="1" speed="5.56" allow="bicycle" oneway="0" width="1.00"/>
    <type id="highway.footway" priority="1" numLanes="1" speed="2.78" allow="pedestrian" oneway="1" width="2.00"/>
    <type id="highway.ford" priority="1" numLanes="1" speed="2.78" allow="army" oneway="0"/>
    <type id="highway.living_street" priority="2" numLanes="1" speed="2.78" disallow="tram rail_urban rail rail_electric rail_fast ship" oneway="0"/>
    <type id="highway.motorway" priority="14" numLanes="2" speed="39.44" allow="private emergency authority army vip passenger hov taxi bus coach delivery truck trailer motorcycle evehicle custom1 custom2" oneway="1"/>
    <type id="highway.motorway_link" priority="9" numLanes="1" speed="22.22" allow="private emergency authority army vip passenger hov taxi bus coach delivery truck trailer motorcycle evehicle custom1 custom2" oneway="1"/>
    <type id="highway.path" priority="1" numLanes="1" speed="5.56" allow="pedestrian bicycle" oneway="0" width="2.00"/>
    <type id="highway.pedestrian" priority="1" numLanes="1" speed="2.78" allow="pedestrian" oneway="1" width="2.00"/>
    <type id="highway.primary" priority="12" numLanes="2" speed="27.78" disallow="tram rail_urban rail rail_electric rail_fast ship" oneway="0"/>
    <type id="highway.primary_link" priority="7" numLanes="1" speed="22.22" disallow="tram rail_urban rail rail_electric rail_fast ship" oneway="0"/>
    <type id="highway.raceway" priority="15" numLanes="2" speed="83.33" allow="vip" oneway="0"/>
    <type id="highway.residential" priority="3" numLanes="1" speed="13.89" disallow="tram rail_urban rail rail_electric rail_fast ship" oneway="0"/>
    <type id="highway.secondary" priority="11" numLanes="1" speed="27.78" disallow="tram rail_urban rail rail_electric rail_fast ship" oneway="0"/>
    <type id="highway.secondary_link" priority="6" numLanes="1" speed="22.22" disallow="tram rail_urban rail rail_electric rail_fast ship" oneway="0"/>
    <type id="highway.service" priority="1" numLanes="1" speed="5.56" allow="pedestrian delivery bicycle" oneway="0"/>
    <type id="highway.stairs" priority="1" numLanes="1" speed="1.39" allow="pedestrian" oneway="1" width="2.00"/>
    <type id="highway.step" priority="1" numLanes="1" speed="1.39" allow="pedestrian" oneway="1" width="2.00"/>
    <type id="highway.steps" priority="1" numLanes="1" speed="1.39" allow="pedestrian" oneway="1" width="2.00"/>
    <type id="highway.tertiary" priority="10" numLanes="1" speed="22.22" disallow="tram rail_urban rail rail_electric rail_fast ship" oneway="0"/>
    <type id="highway.tertiary_link" priority="5" numLanes="1" speed="22.22" disallow="tram rail_urban rail rail_electric rail_fast ship" oneway="0"/>
    <type id="highway.track" priority="1" numLanes="1" speed="5.56" allow="pedestrian motorcycle moped bicycle" oneway="0"/>
    <type id="highway.trunk" priority="13" numLanes="2" speed="27.78" disallow="pedestrian bicycle tram rail_urban rail rail_electric rail_fast ship" oneway="0"/>
    <type id="highway.trunk_link" priority="8" numLanes="1" speed="22.22" disallow="pedestrian bicycle tram rail_urban rail rail_electric rail_fast ship" oneway="0"/>
    <type id="highway.unclassified" priority="4" numLanes="1" speed="13.89" disallow="tram rail_urban rail rail_electric rail_fast ship" oneway="0"/>
    <type id="highway.unsurfaced" priority="1" numLanes="1" speed="8.33" disallow="tram rail_urban rail rail_electric rail_fast ship" oneway="0"/>
    <type id="railway.highspeed" priority="21" numLanes="1" speed="69.44" allow="rail_fast" oneway="1"/>
    <type id="railway.light_rail" priority="19" numLanes="1" speed="27.78" allow="rail_urban" oneway="1"/>
    <type id="railway.preserved" priority="16" numLanes="1" speed="27.78" allow="rail" oneway="1"/>
    <type id="railway.rail" priority="20" numLanes="1" speed="44.44" allow="rail" oneway="1"/>
    <type id="railway.subway" priority="18" numLanes="1" speed="27.78" allow="rail_urban" oneway="1"/>
    <type id="railway.tram" priority="17" numLanes="1" speed="13.89" allow="tram" oneway="1"/>

    <edge id=":1224110732_0" function="internal">
        <lane id=":1224110732_0_0" index="0" disallow="tram rail_urban rail rail_electric rail_fast ship" speed="13.89" length="8.40" shape="143.22,66.21 142.73,63.77 142.29,62.11 141.64,60.53 140.56,58.29"/>
    </edge>
    <edge id=":1633162341_0" function="internal">
        <lane id=":1633162341_0_0" index="0" disallow="pedestrian bicycle tram rail_urban rail rail_electric rail_fast ship" speed="15.28" length="51.42" shape="227.64,192.35 239.84,191.29 253.30,190.95 266.75,191.39 278.93,192.67"/>
        <lane id=":1633162341_0_1" index="1" disallow="pedestrian bicycle tram rail_urban rail rail_electric rail_fast ship" speed="15.28" length="52.37" shape="227.24,189.17 239.60,188.12 253.38,187.79 267.16,188.24 279.49,189.52"/>
    </edge>
    <edge id=":1633162341_2" function="internal">
        <lane id=":1633162341_2_0" index="0" disallow="tram rail_urban rail rail_electric rail_fast ship" speed="13.89" length="52.06" shape="227.24,189.17 238.54,188.95 250.67,189.31 264.47,187.58 280.76,181.12"/>
        <lane id=":1633162341_2_1" index="1" disallow="tram rail_urban rail rail_electric rail_fast ship" speed="13.89" length="52.06" shape="227.24,189.17 238.36,188.48 250.07,187.81 263.36,185.11 279.23,178.31"/>
        <lane id=":1633162341_2_2" index="2" disallow="tram rail_urban rail rail_electric rail_fast ship" speed="13.89" length="52.06" shape="227.24,189.17 238.17,188.01 249.44,186.33 262.22,182.66 277.69,175.50"/>
        <lane id=":1633162341_2_3" index="3" disallow="tram rail_urban rail rail_electric rail_fast ship" speed="13.89" length="52.06" shape="227.24,189.17 237.97,187.55 248.78,184.87 261.05,180.22 276.16,172.69"/>
        <lane id=":1633162341_2_4" index="4" disallow="tram rail_urban rail rail_electric rail_fast ship" speed="13.89" length="52.06" shape="226.84,186.00 237.47,184.39 248.01,181.77 259.91,177.23 274.62,169.88"/>
        <lane id=":1633162341_2_5" index="5" disallow="tram rail_urban rail rail_electric rail_fast ship" speed="13.89" length="52.06" shape="226.84,186.00 237.26,183.94 247.32,180.32 258.71,174.82 273.09,167.07"/>
        <lane id=":1633162341_2_6" index="6" disallow="tram rail_urban rail rail_electric rail_fast ship" speed="13.89" length="52.06" shape="226.84,186.00 237.04,183.49 246.60,178.90 257.46,172.42 271.56,164.26"/>
    </edge>
    <edge id=":1633162341_9" function="internal">
        <lane id=":1633162341_9_0" index="0" allow="bus bicycle" speed="9.17" length="25.97" shape="226.84,186.00 234.16,183.98 238.80,180.22 240.10,174.97 237.43,168.50"/>
    </edge>
    <edge id=":1633162341_10" function="internal">
        <lane id=":1633162341_10_0" index="0" disallow="pedestrian bicycle tram rail_urban rail rail_electric rail_fast ship" speed="15.28" length="50.25" shape="229.34,179.28 234.12,182.53 243.97,185.85 258.91,189.23 278.93,192.67"/>
        <lane id=":1633162341_10_1" index="1" disallow="pedestrian bicycle tram rail_urban rail rail_electric rail_fast ship" speed="15.28" length="50.25" shape="231.36,176.59 235.98,179.71 245.54,182.91 260.04,186.18 279.49,189.52"/>
        <lane id=":1633162341_10_2" index="2" disallow="pedestrian bicycle tram rail_urban rail rail_electric rail_fast ship" speed="15.28" length="50.25" shape="233.38,173.89 237.84,176.89 247.11,179.97 261.17,183.13 280.04,186.37"/>
    </edge>
    <edge id=":1633162341_13" function="internal">
        <lane id=":1633162341_13_0" index="0" disallow="pedestrian bicycle tram rail_urban rail rail_electric rail_fast ship" speed="13.89" length="44.97" shape="235.41,171.20 242.44,177.74 251.58,180.17 262.82,178.49 276.16,172.69"/>
        <lane id=":1633162341_13_1" index="1" disallow="pedestrian bicycle tram rail_urban rail rail_electric rail_fast ship" speed="13.89" length="42.88" shape="235.41,171.20 241.66,176.58 250.28,178.15 261.27,175.92 274.62,169.88"/>
        <lane id=":1633162341_13_2" index="2" disallow="pedestrian bicycle tram rail_urban rail rail_electric rail_fast ship" speed="13.85" length="40.90" shape="235.41,171.20 240.87,175.41 248.98,176.13 259.71,173.35 273.09,167.07"/>
        <lane id=":1633162341_13_3" index="3" disallow="pedestrian bicycle tram rail_urban rail rail_electric rail_fast ship" speed="13.54" length="39.07" shape="235.41,171.20 240.09,174.24 247.67,174.10 258.16,170.78 271.56,164.26"/>
    </edge>
    <edge id=":1633162341_17" function="internal">
        <lane id=":1633162341_17_0" index="0" allow="bus" speed="3.71" length="4.92" shape="235.41,171.20 236.92,171.28 237.77,170.86 237.94,169.93 237.43,168.50"/>
    </edge>
    <edge id=":1931861630_0" function="internal">
        <lane id=":1931861630_0_0" index="0" allow="bus" speed="3.65" length="4.67" shape="277.86,66.93 276.53,66.35 275.64,66.45 275.19,67.21 275.16,68.66"/>
    </edge>
    <edge id=":1931861630_1" function="internal">
        <lane id=":1931861630_1_0" index="0" allow="bus bicycle" speed="6.51" length="8.86" shape="267.55,66.88 269.78,65.94 271.79,65.92 273.58,66.82 275.16,68.66"/>
    </edge>
    <edge id=":1931861634_0" function="internal">
        <lane id=":1931861634_0_0" index="0" disallow="bicycle tram rail_urban rail rail_electric rail_fast ship" speed="16.67" length="8.02" shape="355.55,227.67 356.91,229.46 357.51,230.93 358.08,232.42 359.33,234.31"/>
        <lane id=":1931861634_0_1" index="1" disallow="bicycle tram rail_urban rail rail_electric rail_fast ship" speed="16.67" length="8.02" shape="357.86,225.46 359.27,227.30 359.90,228.79 360.50,230.33 361.79,232.26"/>
        <lane id=":1931861634_0_2" index="2" disallow="bicycle tram rail_urban rail rail_electric rail_fast ship" speed="16.67" length="8.02" shape="360.17,223.25 361.62,225.13 362.29,226.66 362.92,228.23 364.25,230.22"/>
        <lane id=":1931861634_0_3" index="3" disallow="bicycle tram rail_urban rail rail_electric rail_fast ship" speed="16.67" length="8.02" shape="362.48,221.03 363.98,222.96 364.68,224.53 365.33,226.13 366.71,228.17"/>
    </edge>
    <edge id=":1953018738_0" function="internal">
        <lane id=":1953018738_0_0" index="0" allow="bus bicycle" speed="13.89" length="7.89" shape="80.94,128.47 76.60,121.89"/>
    </edge>
    <edge id=":1953018738_1" function="internal">
        <lane id=":1953018738_1_0" index="0" disallow="tram rail_urban rail rail_electric rail_fast ship" speed="13.89" length="8.65" shape="65.87,128.86 66.81,131.22 66.74,133.13 66.69,135.04 67.65,137.38"/>
        <lane id=":1953018738_1_1" index="1" disallow="tram rail_urban rail rail_electric rail_fast ship" speed="13.89" length="8.65" shape="68.55,127.12 69.48,129.47 69.41,131.37 69.35,133.26 70.31,135.60"/>
        <lane id=":1953018738_1_2" index="2" disallow="tram rail_urban rail rail_electric rail_fast ship" speed="13.89" length="8.65" shape="71.23,125.37 72.16,127.71 72.08,129.61 72.02,131.49 72.97,133.81"/>
        <lane id=":1953018738_1_3" index="3" disallow="tram rail_urban rail rail_electric rail_fast ship" speed="13.89" length="8.65" shape="73.92,123.63 74.83,125.96 74.75,127.84 74.68,129.72 75.63,132.03"/>
        <lane id=":1953018738_1_4" index="4" disallow="tram rail_urban rail rail_electric rail_fast ship" speed="13.89" length="8.65" shape="73.92,123.63 78.29,130.25"/>
    </edge>
    <edge id=":237054972_0" function="internal">
        <lane id=":237054972_0_0" index="0" disallow="bicycle tram rail_urban rail rail_electric rail_fast ship" speed="8.59" length="17.70" shape="341.01,151.25 339.80,148.22 340.70,144.93 343.70,141.38 348.80,137.56"/>
        <lane id=":237054972_0_1" index="1" disallow="bicycle tram rail_urban rail rail_electric rail_fast ship" speed="9.14" length="20.15" shape="341.01,151.25 338.95,147.10 339.28,142.99 341.98,138.91 347.08,134.86"/>
    </edge>
    <edge id=":237054972_2" function="internal">
        <lane id=":237054972_2_0" index="0" disallow="bicycle tram rail_urban rail rail_electric rail_fast ship" speed="16.67" length="31.24" shape="341.01,151.25 336.90,143.52 336.29,137.12 335.90,130.58 332.43,122.40"/>
        <lane id=":237054972_2_1" index="1" disallow="bicycle tram rail_urban rail rail_electric rail_fast ship" speed="16.67" length="31.24" shape="338.47,153.19 334.32,145.40 333.67,138.96 333.25,132.37 329.74,124.12"/>
        <lane id=":237054972_2_2" index="2" disallow="bicycle tram rail_urban rail rail_electric rail_fast ship" speed="16.67" length="31.24" shape="335.93,155.14 331.73,147.29 331.05,140.80 330.59,134.16 327.04,125.85"/>
        <lane id=":237054972_2_3" index="3" disallow="bicycle tram rail_urban rail rail_electric rail_fast ship" speed="16.67" length="31.24" shape="333.39,157.09 329.14,149.17 328.43,142.64 327.94,135.96 324.35,127.58"/>
        <lane id=":237054972_2_4" index="4" disallow="bicycle tram rail_urban rail rail_electric rail_fast ship" speed="16.67" length="31.24" shape="330.84,159.03 326.55,151.05 325.81,144.48 325.29,137.75 321.66,129.31"/>
        <lane id=":237054972_2_5" index="5" disallow="bicycle tram rail_urban rail rail_electric rail_fast ship" speed="16.67" length="31.24" shape="328.30,160.98 323.96,152.94 323.19,146.32 322.64,139.54 318.96,131.03"/>
    </edge>
    <edge id=":237054972_8" function="internal">
        <lane id=":237054972_8_0" index="0" disallow="tram rail_urban rail rail_electric rail_fast ship" speed="13.89" length="36.08" shape="320.26,159.48 329.25,153.77 334.77,148.92 340.17,143.87 348.80,137.56"/>
        <lane id=":237054972_8_1" index="1" disallow="tram rail_urban rail rail_electric rail_fast ship" speed="13.89" length="36.08" shape="318.53,156.78 327.52,151.07 333.04,146.22 338.45,141.17 347.08,134.86"/>
        <lane id=":237054972_8_2" index="2" disallow="tram rail_urban rail rail_electric rail_fast ship" speed="13.89" length="36.08" shape="316.80,154.08 325.79,148.37 331.31,143.53 336.72,138.48 345.35,132.17"/>
        <lane id=":237054972_8_3" index="3" disallow="tram rail_urban rail rail_electric rail_fast ship" speed="13.89" length="36.08" shape="315.06,151.38 324.06,145.68 329.58,140.83 334.99,135.78 343.62,129.48"/>
        <lane id=":237054972_8_4" index="4" disallow="tram rail_urban rail rail_electric rail_fast ship" speed="13.89" length="36.08" shape="313.33,148.68 322.32,142.98 327.85,138.13 333.26,133.09 341.90,126.78"/>
    </edge>
    <edge id=":237054972_13" function="internal">
        <lane id=":237054972_13_0" index="0" disallow="bicycle tram rail_urban rail rail_electric rail_fast ship" speed="10.20" length="24.97" shape="311.60,145.98 319.21,141.10 323.87,136.40 325.59,131.90 324.35,127.58"/>
        <lane id=":237054972_13_1" index="1" disallow="bicycle tram rail_urban rail rail_electric rail_fast ship" speed="9.16" length="19.94" shape="309.87,143.28 316.36,139.25 320.49,135.58 322.26,132.27 321.66,129.31"/>
        <lane id=":237054972_13_2" index="2" disallow="bicycle tram rail_urban rail rail_electric rail_fast ship" speed="8.47" length="16.89" shape="309.87,143.28 315.14,139.94 318.41,136.78 319.69,133.81 318.96,131.03"/>
    </edge>
    <edge id=":237054972_16" function="internal">
        <lane id=":237054972_16_0" index="0" allow="bus bicycle" speed="11.49" length="30.39" shape="316.27,132.76 320.41,136.34 326.35,136.99 334.09,134.70 343.62,129.48"/>
        <lane id=":237054972_16_1" index="1" allow="bus bicycle" speed="11.11" length="28.34" shape="316.27,132.76 319.65,135.17 325.05,134.97 332.47,132.18 341.90,126.78"/>
    </edge>
    <edge id=":237054972_18" function="internal">
        <lane id=":237054972_18_0" index="0" allow="bus" speed="3.65" length="4.67" shape="316.27,132.76 317.59,133.34 318.48,133.24 318.94,132.47 318.96,131.03"/>
    </edge>
    <edge id=":237315539_0" function="internal">
        <lane id=":237315539_0_0" index="0" disallow="bicycle tram rail_urban rail rail_electric rail_fast ship" speed="15.28" length="13.22" shape="278.54,199.17 282.20,198.41 284.70,197.58 287.19,197.11 290.82,197.44"/>
        <lane id=":237315539_0_1" index="1" disallow="bicycle tram rail_urban rail rail_electric rail_fast ship" speed="15.28" length="13.22" shape="277.79,196.04 281.84,195.22 284.63,194.36 287.40,193.90 291.42,194.29"/>
    </edge>
    <edge id=":237315539_2" function="internal">
        <lane id=":237315539_2_0" index="0" disallow="pedestrian bicycle tram rail_urban rail rail_electric rail_fast ship" speed="16.67" length="13.20" shape="279.13,192.70 282.95,192.71 285.59,191.84 288.21,191.02 292.02,191.15"/>
        <lane id=":237315539_2_1" index="1" disallow="pedestrian bicycle tram rail_urban rail rail_electric rail_fast ship" speed="16.67" length="13.20" shape="279.68,189.55 283.52,189.56 286.16,188.69 288.80,187.87 292.62,188.01"/>
        <lane id=":237315539_2_2" index="2" disallow="pedestrian bicycle tram rail_urban rail rail_electric rail_fast ship" speed="16.67" length="13.20" shape="280.24,186.40 284.09,186.41 286.74,185.55 289.39,184.73 293.22,184.86"/>
    </edge>
    <edge id=":246800406_0" function="internal">
        <lane id=":246800406_0_0" index="0" disallow="tram rail_urban rail rail_electric rail_fast ship" speed="13.89" length="14.98" shape="204.12,200.26 208.53,199.82 211.57,199.78 214.62,199.89 219.07,199.87"/>
        <lane id=":246800406_0_1" index="1" disallow="tram rail_urban rail rail_electric rail_fast ship" speed="13.89" length="16.17" shape="203.70,197.09 208.46,196.61 211.75,196.56 215.04,196.67 219.84,196.64"/>
    </edge>
    <edge id=":246800406_2" function="internal">
        <lane id=":246800406_2_0" index="0" disallow="tram rail_urban rail rail_electric rail_fast ship" speed="13.89" length="16.17" shape="203.28,193.92 208.17,193.51 211.54,193.60 214.92,193.70 219.81,193.33"/>
        <lane id=":246800406_2_1" index="1" disallow="tram rail_urban rail rail_electric rail_fast ship" speed="13.89" length="16.17" shape="202.86,190.74 207.63,190.36 210.93,190.46 214.22,190.57 219.00,190.21"/>
        <lane id=":246800406_2_2" index="2" disallow="tram rail_urban rail rail_electric rail_fast ship" speed="13.89" length="16.17" shape="202.44,187.57 207.10,187.20 210.31,187.31 213.53,187.43 218.19,187.08"/>
    </edge>
    <edge id=":246801953_0" function="internal">
        <lane id=":246801953_0_0" index="0" allow="bus bicycle" speed="3.65" length="4.67" shape="1.37,-0.82 0.07,-1.44 -0.82,-1.37 -1.30,-0.62 -1.37,0.82"/>
    </edge>
    <edge id=":246810545_0" function="internal">
        <lane id=":246810545_0_0" index="0" disallow="tram rail_urban rail rail_electric rail_fast ship" speed="13.89" length="24.15" shape="142.65,219.19 146.60,213.93 150.42,210.05 154.10,207.53 157.65,206.39"/>
        <lane id=":246810545_0_1" index="1" disallow="tram rail_urban rail rail_electric rail_fast ship" speed="13.89" length="24.15" shape="140.42,216.77 144.63,211.25 148.83,207.16 153.03,204.48 157.23,203.22"/>
        <lane id=":246810545_0_2" index="2" disallow="tram rail_urban rail rail_electric rail_fast ship" speed="13.89" length="24.15" shape="138.19,214.35 142.66,208.58 147.25,204.27 151.97,201.42 156.81,200.04"/>
        <lane id=":246810545_0_3" index="3" disallow="tram rail_urban rail rail_electric rail_fast ship" speed="13.89" length="24.15" shape="135.96,211.93 140.69,205.90 145.67,201.38 150.90,198.37 156.39,196.87"/>
        <lane id=":246810545_0_4" index="4" disallow="tram rail_urban rail rail_electric rail_fast ship" speed="13.89" length="24.15" shape="133.74,209.51 138.72,203.22 144.08,198.49 149.84,195.31 155.98,193.70"/>
    </edge>
    <edge id=":246810545_5" function="internal">
        <lane id=":246810545_5_0" index="0" allow="bus bicycle" speed="8.54" length="19.00" shape="133.74,209.51 137.46,203.23 139.17,198.37 138.87,194.92 136.56,192.88"/>
    </edge>
    <edge id=":246810545_6" function="internal">
        <lane id=":246810545_6_0" index="0" disallow="tram rail_urban rail rail_electric rail_fast ship" speed="13.89" length="23.11" shape="132.76,205.15 139.68,207.00 144.71,206.50 149.88,204.84 157.23,203.22"/>
        <lane id=":246810545_6_1" index="1" disallow="tram rail_urban rail rail_electric rail_fast ship" speed="13.89" length="23.11" shape="133.71,202.09 140.25,203.80 144.99,203.25 149.87,201.61 156.81,200.04"/>
        <lane id=":246810545_6_2" index="2" disallow="tram rail_urban rail rail_electric rail_fast ship" speed="13.89" length="23.11" shape="134.66,199.02 140.81,200.60 145.27,200.00 149.86,198.38 156.39,196.87"/>
        <lane id=":246810545_6_3" index="3" disallow="tram rail_urban rail rail_electric rail_fast ship" speed="13.89" length="23.11" shape="135.61,195.95 141.38,197.39 145.55,196.76 149.85,195.15 155.98,193.70"/>
    </edge>
    <edge id=":246810545_10" function="internal">
        <lane id=":246810545_10_0" index="0" allow="bus bicycle" speed="3.65" length="4.69" shape="135.61,195.95 137.00,195.54 137.62,194.89 137.47,194.01 136.56,192.88"/>
    </edge>
    <edge id=":246810549_0" function="internal">
        <lane id=":246810549_0_0" index="0" disallow="tram rail_urban rail rail_electric rail_fast ship" speed="13.89" length="18.98" shape="70.02,333.71 73.85,329.13 76.30,325.85 78.47,322.37 81.46,317.20"/>
        <lane id=":246810549_0_1" index="1" disallow="tram rail_urban rail rail_electric rail_fast ship" speed="13.89" length="18.98" shape="67.58,331.64 71.30,327.18 73.68,324.00 75.79,320.62 78.69,315.60"/>
        <lane id=":246810549_0_2" index="2" disallow="tram rail_urban rail rail_electric rail_fast ship" speed="13.89" length="18.98" shape="65.15,329.56 68.75,325.24 71.06,322.15 73.10,318.87 75.92,314.00"/>
        <lane id=":246810549_0_3" index="3" disallow="tram rail_urban rail rail_electric rail_fast ship" speed="13.89" length="18.98" shape="62.71,327.49 66.20,323.30 68.44,320.30 70.42,317.12 73.15,312.40"/>
        <lane id=":246810549_0_4" index="4" disallow="tram rail_urban rail rail_electric rail_fast ship" speed="13.89" length="18.98" shape="60.27,325.41 63.66,321.36 65.82,318.45 67.73,315.37 70.38,310.80"/>
    </edge>
    <edge id=":246810549_5" function="internal">
        <lane id=":246810549_5_0" index="0" disallow="tram rail_urban rail rail_electric rail_fast ship" speed="8.33" length="15.23" shape="60.27,325.41 63.34,321.18 64.82,317.53 64.72,314.47 63.04,311.98"/>
        <lane id=":246810549_5_1" index="1" disallow="tram rail_urban rail rail_electric rail_fast ship" speed="7.60" length="12.49" shape="60.27,325.41 62.42,322.24 63.25,319.35 62.75,316.73 60.92,314.38"/>
        <lane id=":246810549_5_2" index="2" disallow="tram rail_urban rail rail_electric rail_fast ship" speed="6.84" length="9.93" shape="60.27,325.41 61.51,323.31 61.68,321.17 60.77,318.99 58.79,316.77"/>
    </edge>
    <edge id=":246810583_0" function="internal">
        <lane id=":246810583_0_0" index="0" disallow="tram rail_urban rail rail_electric rail_fast ship" speed="5.97" length="5.79" shape="247.31,305.40 247.20,306.26 246.85,307.08 246.25,307.87 245.41,308.61"/>
        <lane id=":246810583_0_1" index="1" disallow="tram rail_urban rail rail_electric rail_fast ship" speed="7.17" length="5.79" shape="247.31,305.40 247.43,306.64 247.63,308.44 247.67,310.15 247.33,311.17"/>
        <lane id=":246810583_0_2" index="2" disallow="tram rail_urban rail rail_electric rail_fast ship" speed="8.13" length="5.79" shape="250.53,306.33 250.49,309.18 250.26,311.36 249.85,312.88 249.25,313.73"/>
    </edge>
    <edge id=":246810673_0" function="internal">
        <lane id=":246810673_0_0" index="0" allow="bus bicycle" speed="5.47" length="9.76" shape="118.56,179.52 116.60,177.09 116.32,175.36 117.74,174.32 120.84,173.97"/>
    </edge>
    <edge id=":246810673_1" function="internal">
        <lane id=":246810673_1_0" index="0" allow="bus bicycle" speed="13.89" length="12.90" shape="118.56,179.52 116.10,177.13 113.95,174.99 111.92,172.75 109.83,170.04"/>
    </edge>
    <edge id=":246810673_2" function="internal">
        <lane id=":246810673_2_0" index="0" allow="bus bicycle" speed="3.65" length="1.44" shape="118.56,179.52 117.14,179.25"/>
    </edge>
    <edge id=":246810673_9" function="internal">
        <lane id=":246810673_9_0" index="0" allow="bus bicycle" speed="3.65" length="3.23" shape="117.14,179.25 116.30,179.53 116.02,180.38 116.31,181.80"/>
    </edge>
    <edge id=":246810673_3" function="internal">
        <lane id=":246810673_3_0" index="0" disallow="tram rail_urban rail rail_electric rail_fast ship" speed="13.89" length="15.16" shape="96.81,179.33 99.94,182.71 102.80,184.31 105.84,185.73 109.56,188.62"/>
        <lane id=":246810673_3_1" index="1" disallow="tram rail_urban rail rail_electric rail_fast ship" speed="13.89" length="15.16" shape="99.41,177.47 102.45,180.72 105.24,182.23 108.21,183.57 111.81,186.35"/>
        <lane id=":246810673_3_2" index="2" disallow="tram rail_urban rail rail_electric rail_fast ship" speed="13.89" length="15.16" shape="102.02,175.62 104.97,178.74 107.68,180.15 110.57,181.41 114.06,184.07"/>
        <lane id=":246810673_3_3" index="3" disallow="tram rail_urban rail rail_electric rail_fast ship" speed="13.89" length="15.16" shape="104.62,173.76 107.48,176.75 110.12,178.07 112.93,179.25 116.31,181.80"/>
    </edge>
    <edge id=":246810673_7" function="internal">
        <lane id=":246810673_7_0" index="0" disallow="tram rail_urban rail rail_electric rail_fast ship" speed="10.76" length="1.90" shape="107.23,171.90 108.63,172.81 108.86,172.86"/>
    </edge>
    <edge id=":246810673_8" function="internal">
        <lane id=":246810673_8_0" index="0" allow="bus bicycle" speed="3.65" length="1.44" shape="107.23,171.90 108.58,172.41"/>
    </edge>
    <edge id=":246810673_10" function="internal">
        <lane id=":246810673_10_0" index="0" disallow="tram rail_urban rail rail_electric rail_fast ship" speed="10.76" length="12.07" shape="108.86,172.86 111.37,173.45 115.44,173.84 120.84,173.97"/>
    </edge>
    <edge id=":246810673_11" function="internal">
        <lane id=":246810673_11_0" index="0" allow="bus bicycle" speed="3.65" length="3.23" shape="108.58,172.41 109.46,172.27 109.88,171.48 109.83,170.04"/>
    </edge>
    <edge id=":246817239_0" function="internal">
        <lane id=":246817239_0_0" index="0" allow="bus bicycle" speed="6.51" length="9.03" shape="202.97,112.72 201.98,110.45 201.96,108.41 202.90,106.60 204.80,105.02"/>
    </edge>
    <edge id=":246817239_1" function="internal">
        <lane id=":246817239_1_0" index="0" allow="bus bicycle" speed="13.89" length="11.07" shape="202.97,112.72 196.80,103.53"/>
    </edge>
    <edge id=":246817239_2" function="internal">
        <lane id=":246817239_2_0" index="0" allow="bus" speed="3.65" length="1.44" shape="202.97,112.72 201.66,112.12"/>
    </edge>
    <edge id=":246817239_9" function="internal">
        <lane id=":246817239_9_0" index="0" allow="bus" speed="3.65" length="3.23" shape="201.66,112.12 200.77,112.20 200.29,112.96 200.24,114.40"/>
    </edge>
    <edge id=":246817239_3" function="internal">
        <lane id=":246817239_3_0" index="0" disallow="pedestrian bicycle tram rail_urban rail rail_electric rail_fast ship" speed="13.89" length="10.43" shape="186.47,111.09 192.07,119.43"/>
        <lane id=":246817239_3_1" index="1" disallow="pedestrian bicycle tram rail_urban rail rail_electric rail_fast ship" speed="13.89" length="10.43" shape="189.06,109.20 194.79,117.75"/>
        <lane id=":246817239_3_2" index="2" disallow="pedestrian bicycle tram rail_urban rail rail_electric rail_fast ship" speed="13.89" length="10.43" shape="191.64,107.31 197.52,116.07"/>
        <lane id=":246817239_3_3" index="3" disallow="pedestrian bicycle tram rail_urban rail rail_electric rail_fast ship" speed="13.89" length="10.43" shape="194.22,105.42 200.24,114.40"/>
    </edge>
    <edge id=":246817239_7" function="internal">
        <lane id=":246817239_7_0" index="0" disallow="pedestrian bicycle tram rail_urban rail rail_electric rail_fast ship" speed="7.53" length="2.39" shape="194.22,105.42 196.04,106.97"/>
    </edge>
    <edge id=":246817239_8" function="internal">