<?xml version="1.0" encoding="UTF-8"?>

<!-- generated on 2023-07-17 11:54:57 by Eclipse SUMO netconvert Version 1.17.0
<configuration xmlns:xsi="http://www.w3.org/2001/XMLSchema-instance" xsi:noNamespaceSchemaLocation="http://sumo.dlr.de/xsd/netconvertConfiguration.xsd">

    <input>
        <sumo-net-file value="osm.net.xml.gz"/>
    </input>

    <output>
        <output-file value="osm.net.xml"/>
        <output.street-names value="true"/>
    </output>

    <processing>
        <geometry.min-radius.fix.railways value="false"/>
        <geometry.max-grade.fix value="false"/>
        <offset.disable-normalization value="true"/>
        <lefthand value="1"/>
    </processing>

    <junctions>
        <no-turnarounds value="true"/>
        <junctions.corner-detail value="5"/>
        <junctions.limit-turn-speed value="5.50"/>
        <rectangular-lane-cut value="0"/>
    </junctions>

    <pedestrian>
        <walkingareas value="0"/>
    </pedestrian>

</configuration>
-->

<net version="1.16" junctionCornerDetail="5" lefthand="true" limitTurnSpeed="5.50" xmlns:xsi="http://www.w3.org/2001/XMLSchema-instance" xsi:noNamespaceSchemaLocation="http://sumo.dlr.de/xsd/net_file.xsd">

    <location netOffset="-374812.33,-143445.42" convBoundary="0.00,0.00,686.89,1796.53" origBoundary="103.874752,1.297543,103.880926,1.313792" projParameter="+proj=utm +zone=48 +ellps=WGS84 +datum=WGS84 +units=m +no_defs"/>

    <type id="highway.bridleway" priority="1" numLanes="1" speed="2.78" allow="pedestrian" oneway="1" width="2.00"/>
    <type id="highway.bus_guideway" priority="1" numLanes="1" speed="27.78" allow="bus" oneway="1"/>
    <type id="highway.cycleway" priority="1" numLanes="1" speed="5.56" allow="bicycle" oneway="0" width="1.00"/>
    <type id="highway.footway" priority="1" numLanes="1" speed="2.78" allow="pedestrian" oneway="1" width="2.00"/>
    <type id="highway.ford" priority="1" numLanes="1" speed="2.78" allow="army" oneway="0"/>
    <type id="highway.living_street" priority="2" numLanes="1" speed="2.78" disallow="tram rail_urban rail rail_electric rail_fast ship" oneway="0"/>
    <type id="highway.motorway" priority="14" numLanes="2" speed="39.44" allow="private emergency authority army vip passenger hov taxi bus coach delivery truck trailer motorcycle evehicle custom1 custom2" oneway="1"/>
    <type id="highway.motorway_link" priority="9" numLanes="1" speed="22.22" allow="private emergency authority army vip passenger hov taxi bus coach delivery truck trailer motorcycle evehicle custom1 custom2" oneway="1"/>
    <type id="highway.path" priority="1" numLanes="1" speed="5.56" allow="pedestrian bicycle" oneway="0" width="2.00"/>
    <type id="highway.pedestrian" priority="1" numLanes="1" speed="2.78" allow="pedestrian" oneway="1" width="2.00"/>
    <type id="highway.primary" priority="12" numLanes="2" speed="27.78" disallow="tram rail_urban rail rail_electric rail_fast ship" oneway="0"/>
    <type id="highway.primary_link" priority="7" numLanes="1" speed="22.22" disallow="tram rail_urban rail rail_electric rail_fast ship" oneway="0"/>
    <type id="highway.raceway" priority="15" numLanes="2" speed="83.33" allow="vip" oneway="0"/>
    <type id="highway.residential" priority="3" numLanes="1" speed="13.89" disallow="tram rail_urban rail rail_electric rail_fast ship" oneway="0"/>
    <type id="highway.secondary" priority="11" numLanes="1" speed="27.78" disallow="tram rail_urban rail rail_electric rail_fast ship" oneway="0"/>
    <type id="highway.secondary_link" priority="6" numLanes="1" speed="22.22" disallow="tram rail_urban rail rail_electric rail_fast ship" oneway="0"/>
    <type id="highway.service" priority="1" numLanes="1" speed="5.56" allow="pedestrian delivery bicycle" oneway="0"/>
    <type id="highway.stairs" priority="1" numLanes="1" speed="1.39" allow="pedestrian" oneway="1" width="2.00"/>
    <type id="highway.step" priority="1" numLanes="1" speed="1.39" allow="pedestrian" oneway="1" width="2.00"/>
    <type id="highway.steps" priority="1" numLanes="1" speed="1.39" allow="pedestrian" oneway="1" width="2.00"/>
    <type id="highway.tertiary" priority="10" numLanes="1" speed="22.22" disallow="tram rail_urban rail rail_electric rail_fast ship" oneway="0"/>
    <type id="highway.tertiary_link" priority="5" numLanes="1" speed="22.22" disallow="tram rail_urban rail rail_electric rail_fast ship" oneway="0"/>
    <type id="highway.track" priority="1" numLanes="1" speed="5.56" allow="pedestrian motorcycle moped bicycle" oneway="0"/>
    <type id="highway.trunk" priority="13" numLanes="2" speed="27.78" disallow="pedestrian bicycle tram rail_urban rail rail_electric rail_fast ship" oneway="0"/>
    <type id="highway.trunk_link" priority="8" numLanes="1" speed="22.22" disallow="pedestrian bicycle tram rail_urban rail rail_electric rail_fast ship" oneway="0"/>
    <type id="highway.unclassified" priority="4" numLanes="1" speed="13.89" disallow="tram rail_urban rail rail_electric rail_fast ship" oneway="0"/>
    <type id="highway.unsurfaced" priority="1" numLanes="1" speed="8.33" disallow="tram rail_urban rail rail_electric rail_fast ship" oneway="0"/>
    <type id="railway.highspeed" priority="21" numLanes="1" speed="69.44" allow="rail_fast" oneway="1"/>
    <type id="railway.light_rail" priority="19" numLanes="1" speed="27.78" allow="rail_urban" oneway="1"/>
    <type id="railway.preserved" priority="16" numLanes="1" speed="27.78" allow="rail" oneway="1"/>
    <type id="railway.rail" priority="20" numLanes="1" speed="44.44" allow="rail" oneway="1"/>
    <type id="railway.subway" priority="18" numLanes="1" speed="27.78" allow="rail_urban" oneway="1"/>
    <type id="railway.tram" priority="17" numLanes="1" speed="13.89" allow="tram" oneway="1"/>

    <edge id=":1931968386_0" function="internal">
        <lane id=":1931968386_0_0" index="0" disallow="tram rail_urban rail rail_electric rail_fast ship" speed="8.22" length="7.85" shape="365.42,691.89 363.56,693.46 361.79,694.49 360.10,695.00 358.50,694.99"/>
        <lane id=":1931968386_0_1" index="1" disallow="tram rail_urban rail rail_electric rail_fast ship" speed="9.58" length="10.87" shape="367.64,694.20 365.16,696.24 362.72,697.58 360.31,698.21 357.93,698.13"/>
    </edge>
    <edge id=":1931968386_2" function="internal">
        <lane id=":1931968386_2_0" index="0" disallow="tram rail_urban rail rail_electric rail_fast ship" speed="13.89" length="9.71" shape="368.30,699.15 365.54,697.56 363.61,696.47 361.59,695.68 358.50,694.99"/>
        <lane id=":1931968386_2_1" index="1" disallow="tram rail_urban rail rail_electric rail_fast ship" speed="13.89" length="9.71" shape="366.76,701.96 364.27,700.51 362.54,699.50 360.71,698.77 357.93,698.13"/>
        <lane id=":1931968386_2_2" index="2" disallow="tram rail_urban rail rail_electric rail_fast ship" speed="13.89" length="9.71" shape="365.22,704.76 363.00,703.46 361.46,702.54 359.84,701.86 357.36,701.28"/>
    </edge>
    <edge id=":1931968391_0" function="internal">
        <lane id=":1931968391_0_0" index="0" disallow="tram rail_urban rail rail_electric rail_fast ship" speed="10.20" length="7.62" shape="379.21,711.25 378.83,709.11 379.09,707.61 379.82,706.13 380.82,704.08"/>
        <lane id=":1931968391_0_1" index="1" disallow="tram rail_urban rail rail_electric rail_fast ship" speed="10.97" length="8.86" shape="379.21,711.25 378.27,708.76 377.47,706.98 377.21,705.23 377.87,702.84"/>
    </edge>
    <edge id=":1931968391_2" function="internal">
        <lane id=":1931968391_2_0" index="0" disallow="tram rail_urban rail rail_electric rail_fast ship" speed="13.89" length="8.53" shape="379.21,711.25 378.19,708.60 377.03,707.01 375.57,705.58 373.63,703.42"/>
        <lane id=":1931968391_2_1" index="1" disallow="tram rail_urban rail rail_electric rail_fast ship" speed="13.89" length="8.53" shape="376.14,712.14 375.22,709.85 374.17,708.49 372.84,707.28 371.12,705.40"/>
        <lane id=":1931968391_2_2" index="2" disallow="tram rail_urban rail rail_electric rail_fast ship" speed="13.89" length="8.53" shape="373.06,713.03 372.26,711.09 371.30,709.97 370.11,708.98 368.61,707.39"/>
    </edge>
    <edge id=":1931968397_0" function="internal">
        <lane id=":1931968397_0_0" index="0" disallow="tram rail_urban rail rail_electric rail_fast ship" speed="13.89" length="15.32" shape="389.59,728.15 386.27,725.58 384.02,723.65 382.41,721.30 381.01,717.46"/>
        <lane id=":1931968397_0_1" index="1" disallow="tram rail_urban rail rail_electric rail_fast ship" speed="13.89" length="15.32" shape="387.01,730.18 383.45,727.35 381.09,725.19 379.42,722.56 377.94,718.36"/>
        <lane id=":1931968397_0_2" index="2" disallow="tram rail_urban rail rail_electric rail_fast ship" speed="13.89" length="15.32" shape="384.44,732.21 380.62,729.13 378.15,726.73 376.43,723.82 374.87,719.25"/>
    </edge>
    <edge id=":1931968397_3" function="internal">
        <lane id=":1931968397_3_0" index="0" disallow="tram rail_urban rail rail_electric rail_fast ship" speed="13.89" length="15.45" shape="379.63,733.45 381.66,729.00 382.50,725.65 382.24,722.20 381.01,717.46"/>
        <lane id=":1931968397_3_1" index="1" disallow="tram rail_urban rail rail_electric rail_fast ship" speed="13.46" length="15.45" shape="376.23,733.10 378.18,728.99 379.10,725.90 379.01,722.73 377.94,718.36"/>
        <lane id=":1931968397_3_2" index="2" disallow="tram rail_urban rail rail_electric rail_fast ship" speed="12.92" length="15.45" shape="372.84,732.74 374.70,728.98 375.70,726.16 375.78,723.26 374.87,719.25"/>
    </edge>
    <edge id=":1931968401_0" function="internal">
        <lane id=":1931968401_0_0" index="0" disallow="tram rail_urban rail rail_electric rail_fast ship" speed="8.59" length="7.96" shape="324.56,726.47 324.38,728.14 323.68,729.81 322.49,731.50 320.79,733.20"/>
        <lane id=":1931968401_0_1" index="1" disallow="tram rail_urban rail rail_electric rail_fast ship" speed="9.34" length="9.50" shape="324.56,726.47 324.57,729.83 324.29,732.47 323.73,734.40 322.89,735.61"/>
    </edge>
    <edge id=":1931968401_2" function="internal">
        <lane id=":1931968401_2_0" index="0" disallow="tram rail_urban rail rail_electric rail_fast ship" speed="13.89" length="9.62" shape="324.56,726.47 324.83,729.63 325.38,731.74 326.28,733.78 327.61,736.69"/>
        <lane id=":1931968401_2_1" index="1" disallow="tram rail_urban rail rail_electric rail_fast ship" speed="13.89" length="9.62" shape="327.76,726.35 328.01,729.16 328.53,731.04 329.36,732.84 330.55,735.44"/>
        <lane id=":1931968401_2_2" index="2" disallow="tram rail_urban rail rail_electric rail_fast ship" speed="13.89" length="9.62" shape="330.96,726.22 331.19,728.69 331.67,730.33 332.43,731.91 333.50,734.19"/>
    </edge>
    <edge id=":1931968404_0" function="internal">
        <lane id=":1931968404_0_0" index="0" disallow="tram rail_urban rail rail_electric rail_fast ship" speed="13.89" length="13.25" shape="365.47,748.84 369.05,747.65 371.71,747.73 374.47,748.43 378.38,749.12"/>
        <lane id=":1931968404_0_1" index="1" disallow="tram rail_urban rail rail_electric rail_fast ship" speed="13.89" length="13.83" shape="365.47,748.84 369.18,747.10 371.86,746.08 374.65,745.71 378.69,745.94"/>
        <lane id=":1931968404_0_2" index="2" disallow="tram rail_urban rail rail_electric rail_fast ship" speed="13.89" length="15.29" shape="365.47,748.84 369.39,746.47 371.99,744.36 374.72,742.96 379.00,742.75"/>
    </edge>
    <edge id=":1931968404_3" function="internal">
        <lane id=":1931968404_3_0" index="0" disallow="tram rail_urban rail rail_electric rail_fast ship" speed="13.89" length="15.16" shape="365.47,748.84 369.80,746.81 372.68,745.03 374.87,742.55 377.16,738.43"/>
        <lane id=":1931968404_3_1" index="1" disallow="tram rail_urban rail rail_electric rail_fast ship" speed="13.89" length="15.16" shape="364.12,745.94 368.14,744.00 370.75,742.24 372.72,739.83 374.83,735.93"/>
        <lane id=":1931968404_3_2" index="2" disallow="tram rail_urban rail rail_electric rail_fast ship" speed="13.84" length="15.16" shape="362.78,743.04 366.48,741.19 368.82,739.46 370.56,737.12 372.49,733.44"/>
    </edge>
    <edge id=":1931968421_0" function="internal">
        <lane id=":1931968421_0_0" index="0" disallow="tram rail_urban rail rail_electric rail_fast ship" speed="7.11" length="7.82" shape="331.22,748.81 333.19,747.63 335.06,747.08 336.82,747.15 338.49,747.84"/>
        <lane id=":1931968421_0_1" index="1" disallow="tram rail_urban rail rail_electric rail_fast ship" speed="8.55" length="11.66" shape="329.32,746.23 332.17,744.56 334.93,743.82 337.60,744.01 340.19,745.13"/>
    </edge>
    <edge id=":1931968421_2" function="internal">
        <lane id=":1931968421_2_0" index="0" disallow="tram rail_urban rail rail_electric rail_fast ship" speed="13.89" length="10.60" shape="329.94,740.24 332.20,742.80 333.82,744.51 335.64,745.98 338.49,747.84"/>
        <lane id=":1931968421_2_1" index="1" disallow="tram rail_urban rail rail_electric rail_fast ship" speed="13.89" length="10.60" shape="332.33,738.11 334.41,740.47 335.90,742.05 337.57,743.41 340.19,745.13"/>
        <lane id=":1931968421_2_2" index="2" disallow="tram rail_urban rail rail_electric rail_fast ship" speed="13.89" length="10.60" shape="334.73,735.98 336.62,738.15 337.97,739.59 339.49,740.84 341.88,742.42"/>
    </edge>
    <edge id=":1931968432_0" function="internal">
        <lane id=":1931968432_0_0" index="0" disallow="tram rail_urban rail rail_electric rail_fast ship" speed="13.89" length="27.47" shape="294.06,775.12 298.90,770.62 304.57,767.26 311.07,765.07 318.40,764.02"/>
    </edge>
    <edge id=":1931968432_1" function="internal">
        <lane id=":1931968432_1_0" index="0" disallow="tram rail_urban rail rail_electric rail_fast ship" speed="13.89" length="27.61" shape="294.06,775.12 299.14,770.30 304.52,766.61 310.21,763.28 316.22,759.50"/>
        <lane id=":1931968432_1_1" index="1" disallow="tram rail_urban rail rail_electric rail_fast ship" speed="13.89" length="27.61" shape="291.65,773.02 296.82,768.11 302.40,764.25 308.30,760.73 314.40,756.87"/>
    </edge>
    <edge id=":1931968487_0" function="internal">
        <lane id=":1931968487_0_0" index="0" disallow="tram rail_urban rail rail_electric rail_fast ship" speed="13.89" length="14.44" shape="203.77,957.18 202.53,961.18 201.45,963.86 199.95,966.32 197.43,969.66"/>
        <lane id=":1931968487_0_1" index="1" disallow="tram rail_urban rail rail_electric rail_fast ship" speed="13.89" length="14.44" shape="206.66,958.67 205.35,962.83 204.19,965.61 202.60,968.16 199.95,971.63"/>
    </edge>
    <edge id=":1931968487_2" function="internal">
        <lane id=":1931968487_2_0" index="0" disallow="tram rail_urban rail rail_electric rail_fast ship" speed="12.54" length="14.48" shape="210.07,962.21 206.50,962.97 203.20,964.46 200.18,966.69 197.43,969.66"/>
        <lane id=":1931968487_2_1" index="1" disallow="tram rail_urban rail rail_electric rail_fast ship" speed="12.06" length="14.48" shape="211.88,965.24 208.31,965.94 205.13,967.23 202.34,969.13 199.95,971.63"/>
    </edge>
    <edge id=":1931968501_0" function="internal">
        <lane id=":1931968501_0_0" index="0" disallow="tram rail_urban rail rail_electric rail_fast ship" speed="9.45" length="7.95" shape="190.87,996.04 193.25,995.93 194.99,995.87 196.52,996.31 198.28,997.69"/>
        <lane id=":1931968501_0_1" index="1" disallow="tram rail_urban rail rail_electric rail_fast ship" speed="10.76" length="10.45" shape="190.89,992.84 194.01,992.76 196.26,992.82 198.24,993.54 200.54,995.43"/>
    </edge>
    <edge id=":1931968501_2" function="internal">
        <lane id=":1931968501_2_0" index="0" disallow="tram rail_urban rail rail_electric rail_fast ship" speed="13.89" length="9.35" shape="193.40,989.13 194.46,991.90 195.23,993.82 196.31,995.53 198.28,997.69"/>
        <lane id=":1931968501_2_1" index="1" disallow="tram rail_urban rail rail_electric rail_fast ship" speed="13.89" length="9.35" shape="196.36,987.92 197.27,990.34 197.92,992.03 198.83,993.53 200.54,995.43"/>
    </edge>
    <edge id=":1931968508_0" function="internal">
        <lane id=":1931968508_0_0" index="0" disallow="pedestrian bicycle tram rail_urban rail rail_electric rail_fast ship" speed="13.89" length="14.53" shape="206.59,1003.47 210.88,1005.17 214.03,1006.67 216.61,1008.30 219.22,1010.43"/>
    </edge>
    <edge id=":1931968508_1" function="internal">
        <lane id=":1931968508_1_0" index="0" disallow="tram rail_urban rail rail_electric rail_fast ship" speed="12.63" length="14.20" shape="206.59,1003.47 210.84,1004.78 214.67,1005.36 218.09,1005.20 221.09,1004.30"/>
        <lane id=":1931968508_1_1" index="1" disallow="tram rail_urban rail rail_electric rail_fast ship" speed="12.06" length="14.20" shape="207.72,1000.48 211.42,1001.59 214.85,1002.02 218.01,1001.78 220.90,1000.87"/>
    </edge>
    <edge id=":2925460946_0" function="internal">
        <lane id=":2925460946_0_0" index="0" disallow="tram rail_urban rail rail_electric rail_fast ship" speed="13.89" length="12.46" shape="196.98,970.24 194.55,972.97 192.54,974.49 190.30,975.77 187.16,977.75"/>
        <lane id=":2925460946_0_1" index="1" disallow="tram rail_urban rail rail_electric rail_fast ship" speed="13.89" length="13.02" shape="196.98,970.24 194.80,973.44 193.48,975.82 191.92,977.94 189.00,980.37"/>
    </edge>
    <edge id=":2925460946_2" function="internal">
        <lane id=":2925460946_2_0" index="0" disallow="tram rail_urban rail rail_electric rail_fast ship" speed="13.68" length="13.29" shape="196.98,970.24 194.57,973.49 193.30,976.04 192.82,978.85 192.78,982.90"/>
        <lane id=":2925460946_2_1" index="1" disallow="tram rail_urban rail rail_electric rail_fast ship" speed="13.18" length="13.29" shape="199.50,972.21 197.33,975.25 196.29,977.65 195.97,980.29 196.00,984.07"/>
    </edge>
    <edge id=":2925460950_0" function="internal">
        <lane id=":2925460950_0_0" index="0" disallow="tram rail_urban rail rail_electric rail_fast ship" speed="11.15" length="8.38" shape="228.92,966.95 227.40,965.11 226.85,963.53 226.72,961.72 226.49,959.22"/>
        <lane id=":2925460950_0_1" index="1" disallow="tram rail_urban rail rail_electric rail_fast ship" speed="11.83" length="9.47" shape="228.92,966.95 226.76,965.11 225.16,963.83 224.03,962.30 223.33,959.71"/>
    </edge>
    <edge id=":2925460950_2" function="internal">
        <lane id=":2925460950_2_0" index="0" disallow="tram rail_urban rail rail_electric rail_fast ship" speed="13.89" length="9.46" shape="228.92,966.95 226.68,965.01 224.88,964.02 222.88,963.36 220.02,962.42"/>
        <lane id=":2925460950_2_1" index="1" disallow="tram rail_urban rail rail_electric rail_fast ship" speed="13.89" length="9.46" shape="226.69,969.24 224.74,967.58 223.16,966.76 221.41,966.23 218.92,965.43"/>
    </edge>
    <edge id=":3633794257_0" function="internal">
        <lane id=":3633794257_0_0" index="0" disallow="tram rail_urban rail rail_electric rail_fast ship" speed="11.96" length="4.20" shape="425.75,740.33 424.62,739.84 423.89,739.39 423.25,738.81 422.39,737.91"/>
    </edge>
    <edge id=":3633794257_1" function="internal">
        <lane id=":3633794257_1_0" index="0" disallow="tram rail_urban rail rail_electric rail_fast ship" speed="13.89" length="10.40" shape="424.55,743.30 421.62,742.07 419.63,741.20 417.60,740.42 414.58,739.46"/>
        <lane id=":3633794257_1_1" index="1" disallow="tram rail_urban rail rail_electric rail_fast ship" speed="13.89" length="10.40" shape="423.35,746.27 420.51,745.07 418.57,744.22 416.60,743.46 413.66,742.52"/>
        <lane id=":3633794257_1_2" index="2" disallow="tram rail_urban rail rail_electric rail_fast ship" speed="13.89" length="10.40" shape="422.15,749.23 419.39,748.07 417.50,747.25 415.59,746.50 412.74,745.58"/>
    </edge>
    <edge id=":3633794265_0" function="internal">
        <lane id=":3633794265_0_0" index="0" disallow="tram rail_urban rail rail_electric rail_fast ship" speed="13.89" length="36.35" shape="400.92,761.09 406.54,762.13 415.18,763.76 425.45,766.40 435.93,770.46"/>
    </edge>
    <edge id=":3633794265_1" function="internal">
        <lane id=":3633794265_1_0" index="0" disallow="tram rail_urban rail rail_electric rail_fast ship" speed="13.89" length="36.47" shape="402.07,757.49 435.93,770.46"/>
        <lane id=":3633794265_1_1" index="1" disallow="tram rail_urban rail rail_electric rail_fast ship" speed="13.89" length="36.47" shape="403.28,754.52 437.33,767.58"/>
        <lane id=":3633794265_1_2" index="2" disallow="tram rail_urban rail rail_electric rail_fast ship" speed="13.89" length="36.47" shape="404.48,751.56 438.72,764.70"/>
    </edge>
    <edge id=":5241601742_0" function="internal">
        <lane id=":5241601742_0_0" index="0" disallow="tram rail_urban rail rail_electric rail_fast ship" speed="11.21" length="8.32" shape="308.75,738.69 308.37,741.16 308.14,742.94 307.49,744.48 305.89,746.22"/>
    </edge>
    <edge id=":5241601742_1" function="internal">
        <lane id=":5241601742_1_0" index="0" disallow="tram rail_urban rail rail_electric rail_fast ship" speed="13.89" length="8.36" shape="312.18,740.72 305.89,746.22"/>
        <lane id=":5241601742_1_1" index="1" disallow="tram rail_urban rail rail_electric rail_fast ship" speed="13.89" length="8.36" shape="314.29,743.13 308.00,748.62"/>
    </edge>
    <edge id=":5991976230_0" function="internal">
        <lane id=":5991976230_0_0" index="0" disallow="tram rail_urban rail rail_electric rail_fast ship" speed="13.89" length="8.13" shape="457.85,755.23 455.75,754.00 454.49,752.84 453.21,751.71 451.06,750.57"/>
        <lane id=":5991976230_0_1" index="1" disallow="tram rail_urban rail rail_electric rail_fast ship" speed="13.89" length="8.13" shape="457.85,755.23 455.57,754.46 453.89,754.32 452.19,754.21 449.86,753.53"/>
        <lane id=":5991976230_0_2" index="2" disallow="tram rail_urban rail rail_electric rail_fast ship" speed="13.89" length="8.13" shape="456.53,758.14 454.28,757.39 452.62,757.26 450.95,757.16 448.67,756.50"/>
        <lane id=":5991976230_0_3" index="3" disallow="tram rail_urban rail rail_electric rail_fast ship" speed="13.89" length="8.13" shape="455.20,761.05 452.99,760.32 451.36,760.20 449.71,760.11 447.47,759.47"/>
    </edge>

    <edge id="1117998625" from="2925460950" to="1931968487" name="Stadium Drive" priority="10" type="highway.tertiary" spreadType="center" shape="225.96,966.30 217.18,963.09 207.87,964.05 199.96,969.02">
        <lane id="1117998625_0" index="0" disallow="tram rail_urban rail rail_electric rail_fast ship" speed="13.89" length="8.67" shape="220.02,962.42 217.38,961.46 210.07,962.21">
            <param key="origId" value="1117998625"/>
        </lane>
        <lane id="1117998625_1" index="1" disallow="tram rail_urban rail rail_electric rail_fast ship" speed="13.89" length="8.67" shape="218.92,965.43 216.98,964.72 211.88,965.24">
            <param key="origId" value="1117998625"/>
        </lane>
    </edge>
    <edge id="1117998626#0" from="1931968487" to="2925460946" name="Stadium Drive" priority="10" type="highway.tertiary" spreadType="center">
        <lane id="1117998626#0_0" index="0" disallow="tram rail_urban rail rail_electric rail_fast ship" speed="13.89" length="0.74" shape="197.43,969.66 196.98,970.24">
            <param key="origId" value="1117998626"/>
        </lane>
        <lane id="1117998626#0_1" index="1" disallow="tram rail_urban rail rail_electric rail_fast ship" speed="13.89" length="0.74" shape="199.95,971.63 199.50,972.21">
            <param key="origId" value="1117998626"/>
        </lane>
    </edge>
    <edge id="1117998626#1" from="2925460946" to="1931968501" name="Stadium Drive" priority="10" type="highway.tertiary" spreadType="center" shape="197.01,972.79 194.34,979.88 194.44,987.46 197.32,994.48">
        <lane id="1117998626#1_0" index="0" disallow="tram rail_urban rail rail_electric rail_fast ship" speed="13.89" length="5.12" shape="192.78,982.90 192.84,987.79 193.40,989.13">
            <param key="origId" value="1117998626"/>
        </lane>
        <lane id="1117998626#1_1" index="1" disallow="tram rail_urban rail rail_electric rail_fast ship" speed="13.89" length="5.12" shape="196.00,984.07 196.04,987.13 196.36,987.92">
            <param key="origId" value="1117998626"/>
        </lane>
    </edge>
    <edge id="173767861" from="3633794265" to="4604149152" name="Stadium Boulevard" priority="10" type="highway.tertiary" spreadType="center" shape="446.80,772.17 465.72,781.34 565.67,828.09 621.57,854.25 668.25,881.19">
        <lane id="173767861_0" index="0" disallow="tram rail_urban rail rail_electric rail_fast ship" speed="13.89" length="257.51" shape="435.93,770.46 464.34,784.23 564.31,830.99 620.09,857.09 666.65,883.96">
            <param key="origId" value="173767861 637954933"/>
        </lane>
        <lane id="173767861_1" index="1" disallow="tram rail_urban rail rail_electric rail_fast ship" speed="13.89" length="257.51" shape="437.33,767.58 465.72,781.34 565.67,828.09 621.57,854.25 668.25,881.19">
            <param key="origId" value="173767861 637954933"/>
        </lane>
        <lane id="173767861_2" index="2" disallow="tram rail_urban rail rail_electric rail_fast ship" speed="13.89" length="257.51" shape="438.72,764.70 467.10,778.45 567.03,825.19 623.05,851.41 669.85,878.42">
            <param key="origId" value="173767861 637954933"/>
        </lane>
    </edge>
    <edge id="182829071#0" from="1931968501" to="1931968508" name="Stadium Drive" priority="10" type="highway.tertiary" spreadType="center" shape="197.32,994.48 203.43,1000.56 211.51,1003.62">
        <lane id="182829071#0_0" index="0" disallow="tram rail_urban rail rail_electric rail_fast ship" speed="13.89" length="9.66" shape="198.28,997.69 202.54,1001.94 206.59,1003.47">
            <param key="origId" value="182829071"/>
        </lane>
        <lane id="182829071#0_1" index="1" disallow="tram rail_urban rail rail_electric rail_fast ship" speed="13.89" length="9.66" shape="200.54,995.43 204.32,999.18 207.72,1000.48">
            <param key="origId" value="182829071"/>
        </lane>
    </edge>
    <edge id="182829071#1" from="1931968508" to="2925460950" name="Stadium Drive" priority="10" type="highway.tertiary" spreadType="center" shape="211.51,1003.62 219.44,1003.29 226.67,1000.00 232.10,994.23 234.93,986.89 234.76,979.02 231.61,971.80 225.96,966.30">
        <lane id="182829071#1_0" index="0" disallow="tram rail_urban rail rail_electric rail_fast ship" speed="13.89" length="43.09" shape="221.09,1004.30 227.62,1001.33 233.48,995.10 236.54,987.17 236.35,978.67 232.95,970.87 228.92,966.95">
            <param key="origId" value="182829071 1117998627"/>
        </lane>
        <lane id="182829071#1_1" index="1" disallow="tram rail_urban rail rail_electric rail_fast ship" speed="13.89" length="43.09" shape="220.90,1000.87 225.72,998.67 230.72,993.36 233.32,986.61 233.17,979.37 230.27,972.73 226.69,969.24">
            <param key="origId" value="182829071 1117998627"/>
        </lane>
    </edge>
    <edge id="288997562" from="2925460946" to="3633794844" name="Stadium Drive" priority="10" type="highway.tertiary" spreadType="center" shape="197.01,972.79 186.81,979.96 176.28,982.47 162.48,982.73 133.59,982.94">
        <lane id="288997562_0" index="0" disallow="tram rail_urban rail rail_electric rail_fast ship" speed="13.89" length="55.08" shape="187.16,977.75 186.14,978.47 176.08,980.87 162.46,981.13 133.58,981.34">
            <param key="origId" value="288997562"/>
        </lane>
        <lane id="288997562_1" index="1" disallow="tram rail_urban rail rail_electric rail_fast ship" speed="13.89" length="55.08" shape="189.00,980.37 187.48,981.45 176.48,984.07 162.50,984.33 133.60,984.54">
            <param key="origId" value="288997562"/>
        </lane>
    </edge>
    <edge id="288997566" from="1931968508" to="5218853029" priority="8" type="highway.trunk_link" spreadType="center" shape="211.51,1003.62 232.46,1022.12 247.42,1036.29 258.47,1051.26 265.97,1066.27 267.59,1072.58 267.02,1078.87 265.07,1082.98">
        <lane id="288997566_0" index="0" disallow="pedestrian bicycle tram rail_urban rail rail_electric rail_fast ship" speed="13.89" length="91.03" shape="219.22,1010.43 232.46,1022.12 247.42,1036.29 258.47,1051.26 265.97,1066.27 267.59,1072.58 267.02,1078.87 265.07,1082.98">
            <param key="origId" value="288997566"/>
        </lane>
    </edge>
    <edge id="289205958" from="1931968391" to="3633794220" name="Stadium Walk" priority="10" type="highway.tertiary" spreadType="center" shape="375.95,711.50 384.65,690.88 390.98,676.60 404.62,647.61">
        <lane id="289205958_0" index="0" disallow="tram rail_urban rail rail_electric rail_fast ship" speed="13.89" length="35.85" shape="380.82,704.08 386.12,691.52 392.44,677.26 395.23,671.33">
            <param key="origId" value="289205958"/>
        </lane>
        <lane id="289205958_1" index="1" disallow="tram rail_urban rail rail_electric rail_fast ship" speed="13.89" length="35.85" shape="377.87,702.84 383.18,690.24 389.52,675.94 392.33,669.97">
            <param key="origId" value="289205958"/>
        </lane>
    </edge>
    <edge id="289209509" from="3633794257" to="1931968397" name="Stadium Boulevard" priority="10" type="highway.tertiary" spreadType="center" shape="431.98,748.03 400.66,738.61 391.59,733.90 384.42,728.07 378.62,720.69">
        <lane id="289209509_0" index="0" disallow="tram rail_urban rail rail_electric rail_fast ship" speed="13.89" length="29.70" shape="414.58,739.46 401.87,735.63 393.36,731.21 389.59,728.15">
            <param key="origId" value="289209509"/>
        </lane>