<?xml version="1.0" encoding="UTF-8"?>

<!-- generated on 2023-07-18 13:46:40 by Eclipse SUMO netconvert Version 1.17.0
<configuration xmlns:xsi="http://www.w3.org/2001/XMLSchema-instance" xsi:noNamespaceSchemaLocation="http://sumo.dlr.de/xsd/netconvertConfiguration.xsd">

    <input>
        <sumo-net-file value="osm.net.xml.gz"/>
    </input>

    <output>
        <output-file value="osm.net.xml"/>
        <output.street-names value="true"/>
    </output>

    <processing>
        <geometry.min-radius.fix.railways value="false"/>
        <geometry.max-grade.fix value="false"/>
        <offset.disable-normalization value="true"/>
        <lefthand value="1"/>
    </processing>

    <junctions>
        <no-turnarounds value="true"/>
        <junctions.corner-detail value="5"/>
        <junctions.limit-turn-speed value="5.50"/>
        <rectangular-lane-cut value="0"/>
    </junctions>

    <pedestrian>
        <walkingareas value="0"/>
    </pedestrian>

</configuration>
-->

<net version="1.16" junctionCornerDetail="5" lefthand="true" limitTurnSpeed="5.50" xmlns:xsi="http://www.w3.org/2001/XMLSchema-instance" xsi:noNamespaceSchemaLocation="http://sumo.dlr.de/xsd/net_file.xsd">

    <location netOffset="-379771.35,-144122.05" convBoundary="0.00,0.00,629.54,253.23" origBoundary="103.919322,1.303682,103.924979,1.305973" projParameter="+proj=utm +zone=48 +ellps=WGS84 +datum=WGS84 +units=m +no_defs"/>

    <type id="highway.bridleway" priority="1" numLanes="1" speed="2.78" allow="pedestrian" oneway="1" width="2.00"/>
    <type id="highway.bus_guideway" priority="1" numLanes="1" speed="27.78" allow="bus" oneway="1"/>
    <type id="highway.cycleway" priority="1" numLanes="1" speed="5.56" allow="bicycle" oneway="0" width="1.00"/>
    <type id="highway.footway" priority="1" numLanes="1" speed="2.78" allow="pedestrian" oneway="1" width="2.00"/>
    <type id="highway.ford" priority="1" numLanes="1" speed="2.78" allow="army" oneway="0"/>
    <type id="highway.living_street" priority="2" numLanes="1" speed="2.78" disallow="tram rail_urban rail rail_electric rail_fast ship" oneway="0"/>
    <type id="highway.motorway" priority="14" numLanes="2" speed="39.44" allow="private emergency authority army vip passenger hov taxi bus coach delivery truck trailer motorcycle evehicle custom1 custom2" oneway="1"/>
    <type id="highway.motorway_link" priority="9" numLanes="1" speed="22.22" allow="private emergency authority army vip passenger hov taxi bus coach delivery truck trailer motorcycle evehicle custom1 custom2" oneway="1"/>
    <type id="highway.path" priority="1" numLanes="1" speed="5.56" allow="pedestrian bicycle" oneway="0" width="2.00"/>
    <type id="highway.pedestrian" priority="1" numLanes="1" speed="2.78" allow="pedestrian" oneway="1" width="2.00"/>
    <type id="highway.primary" priority="12" numLanes="2" speed="27.78" disallow="tram rail_urban rail rail_electric rail_fast ship" oneway="0"/>
    <type id="highway.primary_link" priority="7" numLanes="1" speed="22.22" disallow="tram rail_urban rail rail_electric rail_fast ship" oneway="0"/>
    <type id="highway.raceway" priority="15" numLanes="2" speed="83.33" allow="vip" oneway="0"/>
    <type id="highway.residential" priority="3" numLanes="1" speed="13.89" disallow="tram rail_urban rail rail_electric rail_fast ship" oneway="0"/>
    <type id="highway.secondary" priority="11" numLanes="1" speed="27.78" disallow="tram rail_urban rail rail_electric rail_fast ship" oneway="0"/>
    <type id="highway.secondary_link" priority="6" numLanes="1" speed="22.22" disallow="tram rail_urban rail rail_electric rail_fast ship" oneway="0"/>
    <type id="highway.service" priority="1" numLanes="1" speed="5.56" allow="pedestrian delivery bicycle" oneway="0"/>
    <type id="highway.stairs" priority="1" numLanes="1" speed="1.39" allow="pedestrian" oneway="1" width="2.00"/>
    <type id="highway.step" priority="1" numLanes="1" speed="1.39" allow="pedestrian" oneway="1" width="2.00"/>
    <type id="highway.steps" priority="1" numLanes="1" speed="1.39" allow="pedestrian" oneway="1" width="2.00"/>
    <type id="highway.tertiary" priority="10" numLanes="1" speed="22.22" disallow="tram rail_urban rail rail_electric rail_fast ship" oneway="0"/>
    <type id="highway.tertiary_link" priority="5" numLanes="1" speed="22.22" disallow="tram rail_urban rail rail_electric rail_fast ship" oneway="0"/>
    <type id="highway.track" priority="1" numLanes="1" speed="5.56" allow="pedestrian motorcycle moped bicycle" oneway="0"/>
    <type id="highway.trunk" priority="13" numLanes="2" speed="27.78" disallow="pedestrian bicycle tram rail_urban rail rail_electric rail_fast ship" oneway="0"/>
    <type id="highway.trunk_link" priority="8" numLanes="1" speed="22.22" disallow="pedestrian bicycle tram rail_urban rail rail_electric rail_fast ship" oneway="0"/>
    <type id="highway.unclassified" priority="4" numLanes="1" speed="13.89" disallow="tram rail_urban rail rail_electric rail_fast ship" oneway="0"/>
    <type id="highway.unsurfaced" priority="1" numLanes="1" speed="8.33" disallow="tram rail_urban rail rail_electric rail_fast ship" oneway="0"/>
    <type id="railway.highspeed" priority="21" numLanes="1" speed="69.44" allow="rail_fast" oneway="1"/>
    <type id="railway.light_rail" priority="19" numLanes="1" speed="27.78" allow="rail_urban" oneway="1"/>
    <type id="railway.preserved" priority="16" numLanes="1" speed="27.78" allow="rail" oneway="1"/>
    <type id="railway.rail" priority="20" numLanes="1" speed="44.44" allow="rail" oneway="1"/>
    <type id="railway.subway" priority="18" numLanes="1" speed="27.78" allow="rail_urban" oneway="1"/>
    <type id="railway.tram" priority="17" numLanes="1" speed="13.89" allow="tram" oneway="1"/>

    <edge id=":245243362_0" function="internal">
        <lane id=":245243362_0_0" index="0" disallow="tram rail_urban rail rail_electric rail_fast ship" speed="3.65" length="4.67" shape="11.96,-1.53 10.57,-1.12 9.95,-0.48 10.10,0.40 11.00,1.53"/>
    </edge>
    <edge id=":259758008_0" function="internal">
        <lane id=":259758008_0_0" index="0" allow="private emergency authority army vip passenger hov taxi bus coach delivery truck trailer motorcycle evehicle custom1 custom2" speed="19.45" length="3.50" shape="165.88,97.46 169.26,98.36"/>
    </edge>
    <edge id=":259758008_1" function="internal">
        <lane id=":259758008_1_0" index="0" allow="private emergency authority army vip passenger hov taxi bus coach delivery truck trailer motorcycle evehicle custom1 custom2" speed="25.00" length="3.21" shape="166.78,94.39 170.00,95.34"/>
        <lane id=":259758008_1_1" index="1" allow="private emergency authority army vip passenger hov taxi bus coach delivery truck trailer motorcycle evehicle custom1 custom2" speed="25.00" length="3.21" shape="167.67,91.32 170.76,92.23"/>
        <lane id=":259758008_1_2" index="2" allow="private emergency authority army vip passenger hov taxi bus coach delivery truck trailer motorcycle evehicle custom1 custom2" speed="25.00" length="3.21" shape="168.57,88.25 171.52,89.12"/>
    </edge>
    <edge id=":259758011_0" function="internal">
        <lane id=":259758011_0_0" index="0" allow="private emergency authority army vip passenger hov taxi bus coach delivery truck trailer motorcycle evehicle custom1 custom2" speed="13.89" length="9.45" shape="202.56,154.36 202.10,157.12 201.63,158.98 201.06,160.82 200.27,163.52"/>
    </edge>
    <edge id=":259758011_1" function="internal">
        <lane id=":259758011_1_0" index="0" allow="private emergency authority army vip passenger hov taxi bus coach delivery truck trailer motorcycle evehicle custom1 custom2" speed="13.89" length="5.26" shape="203.36,164.36 203.80,162.87 204.20,161.88 204.69,160.92 205.41,159.53"/>
    </edge>
    <edge id=":259758050_0" function="internal">
        <lane id=":259758050_0_0" index="0" allow="private emergency authority army vip passenger hov taxi bus coach delivery truck trailer motorcycle evehicle custom1 custom2" speed="19.45" length="3.09" shape="293.44,134.44 296.43,135.23"/>
    </edge>
    <edge id=":259758050_1" function="internal">
        <lane id=":259758050_1_0" index="0" allow="private emergency authority army vip passenger hov taxi bus coach delivery truck trailer motorcycle evehicle custom1 custom2" speed="25.00" length="2.95" shape="294.32,131.34 297.24,132.13"/>
        <lane id=":259758050_1_1" index="1" allow="private emergency authority army vip passenger hov taxi bus coach delivery truck trailer motorcycle evehicle custom1 custom2" speed="25.00" length="2.95" shape="295.20,128.26 298.05,129.04"/>
        <lane id=":259758050_1_2" index="2" allow="private emergency authority army vip passenger hov taxi bus coach delivery truck trailer motorcycle evehicle custom1 custom2" speed="25.00" length="2.95" shape="296.07,125.18 298.85,125.94"/>
    </edge>
    <edge id=":6096051988_0" function="internal">
        <lane id=":6096051988_0_0" index="0" allow="private emergency authority army vip passenger hov taxi bus coach delivery truck trailer motorcycle evehicle custom1 custom2" speed="25.00" length="8.14" shape="50.45,60.55 52.65,61.64 53.81,63.08 54.96,64.55 57.14,65.71"/>
        <lane id=":6096051988_0_1" index="1" allow="private emergency authority army vip passenger hov taxi bus coach delivery truck trailer motorcycle evehicle custom1 custom2" speed="25.00" length="8.14" shape="50.45,60.55 58.04,62.64"/>
        <lane id=":6096051988_0_2" index="2" allow="private emergency authority army vip passenger hov taxi bus coach delivery truck trailer motorcycle evehicle custom1 custom2" speed="25.00" length="8.14" shape="51.25,57.45 58.93,59.57"/>
        <lane id=":6096051988_0_3" index="3" allow="private emergency authority army vip passenger hov taxi bus coach delivery truck trailer motorcycle evehicle custom1 custom2" speed="25.00" length="8.14" shape="52.04,54.35 59.83,56.50"/>
    </edge>
    <edge id=":6957637254_0" function="internal">
        <lane id=":6957637254_0_0" index="0" allow="private emergency authority army vip passenger hov taxi bus coach delivery truck trailer motorcycle evehicle custom1 custom2" speed="25.00" length="8.00" shape="387.12,155.56 394.81,157.61"/>
        <lane id=":6957637254_0_1" index="1" allow="private emergency authority army vip passenger hov taxi bus coach delivery truck trailer motorcycle evehicle custom1 custom2" speed="25.00" length="8.00" shape="387.92,152.46 395.66,154.53"/>
        <lane id=":6957637254_0_2" index="2" allow="private emergency authority army vip passenger hov taxi bus coach delivery truck trailer motorcycle evehicle custom1 custom2" speed="25.00" length="8.00" shape="388.73,149.37 396.50,151.44"/>
    </edge>

    <edge id="-23960766" from="4598835280" to="259758011" name="Marine Vista" priority="10" type="highway.tertiary">
        <lane id="-23960766_0" index="0" disallow="tram rail_urban rail rail_electric rail_fast ship" speed="13.89" length="92.56" shape="178.98,253.65 203.36,164.36">
            <param key="origId" value="23960766"/>
        </lane>
    </edge>
    <edge id="-641160520" from="1833766891" to="245243362" name="East Coast Park Service Road" priority="4" type="highway.unclassified" shape="430.04,119.90 131.80,36.49 68.99,18.40 40.32,9.03 11.48,0.00">
        <lane id="-641160520_0" index="0" disallow="tram rail_urban rail rail_electric rail_fast ship" speed="13.89" length="435.38" shape="430.47,118.36 132.24,34.95 69.46,16.87 40.81,7.51 11.96,-1.53">
            <param key="origId" value="641160520 655653112 655666439 641160521"/>
        </lane>
    </edge>
    <edge id="23960766" from="259758011" to="4598835280" name="Marine Vista" priority="10" type="highway.tertiary">
        <lane id="23960766_0" index="0" disallow="tram rail_urban rail rail_electric rail_fast ship" speed="13.89" length="92.56" shape="200.27,163.52 175.90,252.81">
            <param key="origId" value="23960766"/>
        </lane>
    </edge>
    <edge id="23960768" from="259758011" to="259758050" priority="9" type="highway.motorway_link" spreadType="center" shape="200.56,168.53 202.59,165.17 212.68,144.96 219.36,136.11 227.94,128.37 241.14,124.41 253.10,123.89 295.00,134.85">
        <lane id="23960768_0" index="0" allow="private emergency authority army vip passenger hov taxi bus coach delivery truck trailer motorcycle evehicle custom1 custom2" speed="13.89" length="106.38" shape="205.41,159.53 212.68,144.96 219.36,136.11 227.94,128.37 241.14,124.41 253.10,123.89 293.44,134.44">
            <param key="origId" value="23960768"/>
        </lane>
    </edge>
    <edge id="44488271" from="259758008" to="259758011" priority="9" type="highway.motorway_link" spreadType="center" shape="167.40,97.91 187.12,102.73 192.42,107.31 196.16,111.31 200.22,118.57 204.55,140.56 201.08,164.66 200.56,168.53">
        <lane id="44488271_0" index="0" allow="private emergency authority army vip passenger hov taxi bus coach delivery truck trailer motorcycle evehicle custom1 custom2" speed="13.89" length="75.54" shape="169.26,98.36 187.12,102.73 192.42,107.31 196.16,111.31 200.22,118.57 204.55,140.56 202.56,154.36">
            <param key="origId" value="44488271"/>
        </lane>
    </edge>
    <edge id="630093161" from="1450903696" to="6096051988" name="East Coast Parkway" priority="14" type="highway.motorway" spreadType="center" shape="0.00,43.65 27.24,51.28 55.12,58.45">
        <lane id="630093161_0" index="0" allow="private emergency authority army vip passenger hov taxi bus coach delivery truck trailer motorcycle evehicle custom1 custom2" speed="25.00" length="53.08" shape="-0.86,46.73 26.41,54.37 50.45,60.55">
            <param key="origId" value="630093161 649609109"/>
        </lane>
        <lane id="630093161_1" index="1" allow="private emergency authority army vip passenger hov taxi bus coach delivery truck trailer motorcycle evehicle custom1 custom2" speed="25.00" length="53.08" shape="0.00,43.65 27.24,51.28 51.25,57.45">
            <param key="origId" value="630093161 649609109"/>
        </lane>
        <lane id="630093161_2" index="2" allow="private emergency authority army vip passenger hov taxi bus coach delivery truck trailer motorcycle evehicle custom1 custom2" speed="25.00" length="53.08" shape="0.86,40.57 28.07,48.19 52.04,54.35">
            <param key="origId" value="630093161 649609109"/>
        </lane>
        <param key="ref" value="ECP"/>
    </edge>
    <edge id="635498363" from="259758008" to="259758050" name="East Coast Parkway" priority="14" type="highway.motorway" spreadType="center" shape="169.19,91.77 259.87,118.25 296.62,128.66">
        <lane id="635498363_0" index="0" allow="private emergency authority army vip passenger hov taxi bus coach delivery truck trailer motorcycle evehicle custom1 custom2" speed="25.00" length="129.55" shape="170.00,95.34 258.99,121.33 294.32,131.34">
            <param key="origId" value="635498363 743307991"/>
        </lane>
        <lane id="635498363_1" index="1" allow="private emergency authority army vip passenger hov taxi bus coach delivery truck trailer motorcycle evehicle custom1 custom2" speed="25.00" length="129.55" shape="170.76,92.23 259.87,118.25 295.20,128.26">
            <param key="origId" value="635498363 743307991"/>
        </lane>
        <lane id="635498363_2" index="2" allow="private emergency authority army vip passenger hov taxi bus coach delivery truck trailer motorcycle evehicle custom1 custom2" speed="25.00" length="129.55" shape="171.52,89.12 260.75,115.17 296.07,125.18">
            <param key="origId" value="635498363 743307991"/>
        </lane>
        <param key="ref" value="ECP"/>
    </edge>
    <edge id="641160521" from="245243362" to="1833766891" name="East Coast Park Service Road" priority="4" type="highway.unclassified" shape="11.48,0.00 40.32,9.03 68.99,18.40 131.80,36.49 430.04,119.90">
        <lane id="641160521_0" index="0" disallow="tram rail_urban rail rail_electric rail_fast ship" speed="13.89" length="435.48" shape="11.00,1.53 39.83,10.55 68.52,19.93 131.36,38.03 429.61,121.44">
            <param key="origId" value="641160521 655666439 655653112 641160520"/>
        </lane>
    </edge>
    <edge id="649609104" from="259758050" to="6957637254" name="East Coast Parkway" priority="14" type="highway.motorway" spreadType="center" shape="296.21,130.21 391.39,155.02">
        <lane id="649609104_0" index="0" allow="private emergency authority army vip passenger hov taxi bus coach delivery truck trailer motorcycle evehicle custom1 custom2" speed="25.00" length="92.88" acceleration="1" shape="296.43,135.23 386.31,158.66">
            <param key="origId" value="649609104"/>
        </lane>
        <lane id="649609104_1" index="1" allow="private emergency authority army vip passenger hov taxi bus coach delivery truck trailer motorcycle evehicle custom1 custom2" speed="25.00" length="92.88" shape="297.24,132.13 387.12,155.56">
            <param key="origId" value="649609104"/>
        </lane>
        <lane id="649609104_2" index="2" allow="private emergency authority army vip passenger hov taxi bus coach delivery truck trailer motorcycle evehicle custom1 custom2" speed="25.00" length="92.88" shape="298.05,129.04 387.92,152.46">
            <param key="origId" value="649609104"/>
        </lane>
        <lane id="649609104_3" index="3" allow="private emergency authority army vip passenger hov taxi bus coach delivery truck trailer motorcycle evehicle custom1 custom2" speed="25.00" length="92.88" shape="298.85,125.94 388.73,149.37">
            <param key="origId" value="649609104"/>
        </lane>
        <param key="ref" value="ECP"/>
    </edge>
    <edge id="649609108" from="6096051988" to="259758008" name="East Coast Parkway" priority="14" type="highway.motorway" spreadType="center" shape="54.67,59.99 168.74,93.30">
        <lane id="649609108_0" index="0" allow="private emergency authority army vip passenger hov taxi bus coach delivery truck trailer motorcycle evehicle custom1 custom2" speed="25.00" length="113.28" shape="57.14,65.71 165.88,97.46">
            <param key="origId" value="649609108"/>
        </lane>
        <lane id="649609108_1" index="1" allow="private emergency authority army vip passenger hov taxi bus coach delivery truck trailer motorcycle evehicle custom1 custom2" speed="25.00" length="113.28" shape="58.04,62.64 166.78,94.39">
            <param key="origId" value="649609108"/>
        </lane>
        <lane id="649609108_2" index="2" allow="private emergency authority army vip passenger hov taxi bus coach delivery truck trailer motorcycle evehicle custom1 custom2" speed="25.00" length="113.28" shape="58.93,59.57 167.67,91.32">
            <param key="origId" value="649609108"/>
        </lane>
        <lane id="649609108_3" index="3" allow="private emergency authority army vip passenger hov taxi bus coach delivery truck trailer motorcycle evehicle custom1 custom2" speed="25.00" length="113.28" shape="59.83,56.50 168.57,88.25">
            <param key="origId" value="649609108"/>
        </lane>
        <param key="ref" value="ECP"/>
    </edge>
    <edge id="743300413" from="6957593743" to="243494904" name="East Coast Parkway" priority="14" type="highway.motorway" spreadType="center" shape="477.79,157.41 382.79,131.38 302.22,109.31 31.55,31.59 4.84,23.56">
        <lane id="743300413_0" index="0" allow="private emergency authority army vip passenger hov taxi bus coach delivery truck trailer motorcycle evehicle custom1 custom2" speed="25.00" length="491.54" shape="478.64,154.32 383.64,128.29 303.08,106.23 32.45,28.52 5.76,20.50">
            <param key="origId" value="743300413 641558279 630093160"/>
        </lane>
        <lane id="743300413_1" index="1" allow="private emergency authority army vip passenger hov taxi bus coach delivery truck trailer motorcycle evehicle custom1 custom2" speed="25.00" length="491.54" shape="477.79,157.41 382.79,131.38 302.22,109.31 31.55,31.59 4.84,23.56">
            <param key="origId" value="743300413 641558279 630093160"/>
        </lane>
        <lane id="743300413_2" index="2" allow="private emergency authority army vip passenger hov taxi bus coach delivery truck trailer motorcycle evehicle custom1 custom2" speed="25.00" length="491.54" shape="476.94,160.50 381.94,134.47 301.36,112.39 30.65,34.66 3.92,26.62">
            <param key="origId" value="743300413 641558279 630093160"/>
        </lane>
        <param key="ref" value="ECP"/>
    </edge>
    <edge id="743307990" from="6957637254" to="6041590765" name="East Coast Parkway" priority="14" type="highway.motorway" spreadType="center">
        <lane id="743307990_0" index="0" allow="private emergency authority army vip passenger hov taxi bus coach delivery truck trailer motorcycle evehicle custom1 custom2" speed="25.00" length="242.49" shape="394.81,157.61 628.70,221.63">
            <param key="origId" value="743307990"/>
        </lane>
        <lane id="743307990_1" index="1" allow="private emergency authority army vip passenger hov taxi bus coach delivery truck trailer motorcycle evehicle custom1 custom2" speed="25.00" length="242.49" shape="395.66,154.53 629.54,218.54">
            <param key="origId" value="743307990"/>
        </lane>
        <lane id="743307990_2" index="2" allow="private emergency authority army vip passenger hov taxi bus coach delivery truck trailer motorcycle evehicle custom1 custom2" speed="25.00" length="242.49" shape="396.50,151.44 630.38,215.45">
            <param key="origId" value="743307990"/>
        </lane>
        <param key="ref" value="ECP"/>
    </edge>

    <junction id="1450903696" type="dead_end" x="0.00" y="43.65" incLanes="" intLanes="" shape="1.29,39.03 -1.29,48.27"/>
    <junction id="1833766891" type="dead_end" x="430.04" y="119.90" incLanes="641160521_0" intLanes="" shape="430.04,119.90 429.18,122.98 430.04,119.90"/>
    <junction id="243494904" type="dead_end" x="4.84" y="23.56" incLanes="743300413_0 743300413_1 743300413_2" intLanes="" shape="6.22,18.96 3.46,28.16"/>
    <junction id="245243362" type="priority" x="11.48" y="0.00" incLanes="-641160520_0" intLanes=":245243362_0_0" shape="11.48,-0.00 12.44,-3.05 11.48,-0.00">
        <request index="0" response="0" foes="0" cont="0"/>
    </junction>
    <junction id="259758008" type="priority" x="169.19" y="91.77" incLanes="649609108_0 649609108_1 649609108_2 649609108_3" intLanes=":259758008_0_0 :259758008_1_0 :259758008_1_1 :259758008_1_2" shape="171.90,87.56 168.88,99.92 165.43,99.00 169.02,86.71">
        <request index="0" response="0000" foes="0000" cont="0"/>
        <request index="1" response="0000" foes="0000" cont="0"/>
        <request index="2" response="0000" foes="0000" cont="0"/>
        <request index="3" response="0000" foes="0000" cont="0"/>
    </junction>
    <junction id="259758011" type="priority" x="200.56" y="168.53" incLanes="44488271_0 -23960766_0" intLanes=":259758011_0_0 :259758011_1_0" shape="200.98,154.15 204.15,154.58 203.79,157.46 203.73,158.34 203.75,158.84 203.85,158.96 204.03,158.70 206.78,160.36 205.96,161.95 205.68,162.51 205.43,163.08 205.19,163.80 204.90,164.78 198.73,163.09 199.70,159.81 200.06,158.66 200.37,157.51 200.67,156.09">
        <request index="0" response="00" foes="00" cont="0"/>
        <request index="1" response="00" foes="00" cont="0"/>
    </junction>
    <junction id="259758050" type="priority" x="296.62" y="128.66" incLanes="23960768_0 635498363_0 635498363_1 635498363_2" intLanes=":259758050_0_0 :259758050_1_0 :259758050_1_1 :259758050_1_2" shape="299.26,124.39 296.03,136.78 293.01,135.98 296.50,123.64">
        <request index="0" response="0000" foes="0000" cont="0"/>
        <request index="1" response="0000" foes="0000" cont="0"/>
        <request index="2" response="0000" foes="0000" cont="0"/>
        <request index="3" response="0000" foes="0000" cont="0"/>
    </junction>
    <junction id="4598835280" type="dead_end" x="177.44" y="253.23" incLanes="23960766_0" intLanes="" shape="177.44,253.23 174.35,252.39 177.44,253.23"/>
    <junction id="6041590765" type="dead_end" x="629.54" y="218.54" incLanes="743307990_0 743307990_1 743307990_2" intLanes="" shape="628.27,223.17 630.81,213.91"/>
    <junction id="6096051988" type="priority" x="55.12" y="58.45" incLanes="630093161_0 630093161_1 630093161_2" intLanes=":6096051988_0_0 :6096051988_0_1 :6096051988_0_2 :6096051988_0_3" shape="60.28,54.96 56.69,67.25 54.08,65.62 53.38,64.63 52.68,63.64 51.67,62.77 50.05,62.10 52.44,52.81">
        <request index="0" response="0000" foes="0000" cont="0"/>
        <request index="1" response="0000" foes="0000" cont="0"/>
        <request index="2" response="0000" foes="0000" cont="0"/>
        <request index="3" response="0000" foes="0000" cont="0"/>
    </junction>
    <junction id="6957593743" type="dead_end" x="477.79" y="157.41" incLanes="" intLanes="" shape="476.52,162.04 479.06,152.78"/>
    <junction id="6957637254" type="priority" x="391.79" y="153.47" incLanes="649609104_0 649609104_1 649609104_2 649609104_3" intLanes=":6957637254_0_0 :6957637254_0_1 :6957637254_0_2" shape="396.92,149.90 394.39,159.16 391.28,159.17 390.15,159.66 389.03,160.16 387.68,160.42 385.91,160.20 389.14,147.82">
        <request index="0" response="000" foes="000" cont="0"/>
        <request index="1" response="000" foes="000" cont="0"/>
        <request index="2" response="000" foes="000" cont="0"/>
    </junction>

    <connection from="-23960766" to="23960768" fromLane="0" toLane="0" via=":259758011_1_0" dir="s" state="M"/>
    <connection from="-641160520" to="641160521" fromLane="0" toLane="0" via=":245243362_0_0" dir="T" state="M"/>
    <connection from="23960768" to="649609104" fromLane="0" toLane="0" via=":259758050_0_0" dir="s" state="M"/>
    <connection from="44488271" to="23960766" fromLane="0" toLane="0" via=":259758011_0_0" dir="s" state="M"/>
    <connection from="630093161" to="649609108" fromLane="0" toLane="0" via=":6096051988_0_0" dir="s" state="M"/>
    <connection from="630093161" to="649609108" fromLane="0" toLane="1" via=":6096051988_0_1" dir="s" state="M"/>
    <connection from="630093161" to="649609108" fromLane="1" toLane="2" via=":6096051988_0_2" dir="s" state="M"/>
    <connection from="630093161" to="649609108" fromLane="2" toLane="3" via=":6096051988_0_3" dir="s" state="M"/>
    <connection from="635498363" to="649609104" fromLane="0" toLane="1" via=":259758050_1_0" dir="s" state="M"/>
    <connection from="635498363" to="649609104" fromLane="1" toLane="2" via=":259758050_1_1" dir="s" state="M"/>
    <connection from="635498363" to="649609104" fromLane="2" toLane="3" via=":259758050_1_2" dir="s" state="M"/>
    <connection from="649609104" to="743307990" fromLane="1" toLane="0" via=":6957637254_0_0" dir="s" state="M"/>
    <connection from="649609104" to="743307990" fromLane="2" toLane="1" via=":6957637254_0_1" dir="s" state="M"/>
    <connection from="649609104" to="743307990" fromLane="3" toLane="2" via=":6957637254_0_2" dir="s" state="M"/>
    <connection from="649609108" to="44488271" fromLane="0" toLane="0" via=":259758008_0_0" dir="s" state="M"/>
    <connection from="649609108" to="635498363" fromLane="1" toLane="0" via=":259758008_1_0" dir="s" state="M"/>
    <connection from="649609108" to="635498363" fromLane="2" toLane="1" via=":259758008_1_1" dir="s" state="M"/>
    <connection from="649609108" to="635498363" fromLane="3" toLane="2" via=":259758008_1_2" dir="s" state="M"/>

    <connection from=":245243362_0" to="641160521" fromLane="0" toLane="0" dir="T" state="M"/>
    <connection from=":259758008_0" to="44488271" fromLane="0" toLane="0" dir="s" state="M"/>
    <connection from=":259758008_1" to="635498363" fromLane="0" toLane="0" dir="s" state="M"/>
    <connection from=":259758008_1" to="635498363" fromLane="1" toLane="1" dir="s" state="M"/>
    <connection from=":259758008_1" to="635498363" fromLane="2" toLane="2" dir="s" state="M"/>
    <connection from=":259758011_0" to="23960766" fromLane="0" toLane="0" dir="s" state="M"/>
    <connection from=":259758011_1" to="23960768" fromLane="0" toLane="0" dir="s" state="M"/>
    <connection from=":259758050_0" to="649609104" fromLane="0" toLane="0" dir="s" state="M"/>
    <connection from=":259758050_1" to="649609104" fromLane="0" toLane="1" dir="s" state="M"/>
    <connection from=":259758050_1" to="649609104" fromLane="1" toLane="2" dir="s" state="M"/>
    <connection from=":259758050_1" to="649609104" fromLane="2" toLane="3" dir="s" state="M"/>
    <connection from=":6096051988_0" to="649609108" fromLane="0" toLane="0" dir="s" state="M"/>
    <connection from=":6096051988_0" to="649609108" fromLane="1" toLane="1" dir="s" state="M"/>
    <connection from=":6096051988_0" to="649609108" fromLane="2" toLane="2" dir="s" state="M"/>
    <connection from=":6096051988_0" to="649609108" fromLane="3" toLane="3" dir="s" state="M"/>
    <connection from=":6957637254_0" to="743307990" fromLane="0" toLane="0" dir="s" state="M"/>
    <connection from=":6957637254_0" to="743307990" fromLane="1" toLane="1" dir="s" state="M"/>
    <connection from=":6957637254_0" to="743307990" fromLane="2" toLane="2" dir="s" state="M"/>

</net>
