<?xml version="1.0" encoding="UTF-8"?>

<!-- generated on 2023-07-20 11:19:02 by Eclipse SUMO netconvert Version 1.17.0
<configuration xmlns:xsi="http://www.w3.org/2001/XMLSchema-instance" xsi:noNamespaceSchemaLocation="http://sumo.dlr.de/xsd/netconvertConfiguration.xsd">

    <input>
        <sumo-net-file value="osm.net.xml.gz"/>
    </input>

    <output>
        <output-file value="osm.net.xml"/>
        <output.street-names value="true"/>
    </output>

    <processing>
        <geometry.min-radius.fix.railways value="false"/>
        <geometry.max-grade.fix value="false"/>
        <offset.disable-normalization value="true"/>
        <lefthand value="1"/>
    </processing>

    <junctions>
        <no-turnarounds value="true"/>
        <junctions.corner-detail value="5"/>
        <junctions.limit-turn-speed value="5.50"/>
        <rectangular-lane-cut value="0"/>
    </junctions>

    <pedestrian>
        <walkingareas value="0"/>
    </pedestrian>

</configuration>
-->

<net version="1.16" junctionCornerDetail="5" lefthand="true" limitTurnSpeed="5.50" xmlns:xsi="http://www.w3.org/2001/XMLSchema-instance" xsi:noNamespaceSchemaLocation="http://sumo.dlr.de/xsd/net_file.xsd">

    <location netOffset="-370366.98,-146630.48" convBoundary="0.00,-1.53,1066.93,535.16" origBoundary="103.834791,1.326334,103.844379,1.331176" projParameter="+proj=utm +zone=48 +ellps=WGS84 +datum=WGS84 +units=m +no_defs"/>

    <type id="highway.bridleway" priority="1" numLanes="1" speed="2.78" allow="pedestrian" oneway="1" width="2.00"/>
    <type id="highway.bus_guideway" priority="1" numLanes="1" speed="27.78" allow="bus" oneway="1"/>
    <type id="highway.cycleway" priority="1" numLanes="1" speed="5.56" allow="bicycle" oneway="0" width="1.00"/>
    <type id="highway.footway" priority="1" numLanes="1" speed="2.78" allow="pedestrian" oneway="1" width="2.00"/>
    <type id="highway.ford" priority="1" numLanes="1" speed="2.78" allow="army" oneway="0"/>
    <type id="highway.living_street" priority="2" numLanes="1" speed="2.78" disallow="tram rail_urban rail rail_electric rail_fast ship" oneway="0"/>
    <type id="highway.motorway" priority="14" numLanes="2" speed="39.44" allow="private emergency authority army vip passenger hov taxi bus coach delivery truck trailer motorcycle evehicle custom1 custom2" oneway="1"/>
    <type id="highway.motorway_link" priority="9" numLanes="1" speed="22.22" allow="private emergency authority army vip passenger hov taxi bus coach delivery truck trailer motorcycle evehicle custom1 custom2" oneway="1"/>
    <type id="highway.path" priority="1" numLanes="1" speed="5.56" allow="pedestrian bicycle" oneway="0" width="2.00"/>
    <type id="highway.pedestrian" priority="1" numLanes="1" speed="2.78" allow="pedestrian" oneway="1" width="2.00"/>
    <type id="highway.primary" priority="12" numLanes="2" speed="27.78" disallow="tram rail_urban rail rail_electric rail_fast ship" oneway="0"/>
    <type id="highway.primary_link" priority="7" numLanes="1" speed="22.22" disallow="tram rail_urban rail rail_electric rail_fast ship" oneway="0"/>
    <type id="highway.raceway" priority="15" numLanes="2" speed="83.33" allow="vip" oneway="0"/>
    <type id="highway.residential" priority="3" numLanes="1" speed="13.89" disallow="tram rail_urban rail rail_electric rail_fast ship" oneway="0"/>
    <type id="highway.secondary" priority="11" numLanes="1" speed="27.78" disallow="tram rail_urban rail rail_electric rail_fast ship" oneway="0"/>
    <type id="highway.secondary_link" priority="6" numLanes="1" speed="22.22" disallow="tram rail_urban rail rail_electric rail_fast ship" oneway="0"/>
    <type id="highway.service" priority="1" numLanes="1" speed="5.56" allow="pedestrian delivery bicycle" oneway="0"/>
    <type id="highway.stairs" priority="1" numLanes="1" speed="1.39" allow="pedestrian" oneway="1" width="2.00"/>
    <type id="highway.step" priority="1" numLanes="1" speed="1.39" allow="pedestrian" oneway="1" width="2.00"/>
    <type id="highway.steps" priority="1" numLanes="1" speed="1.39" allow="pedestrian" oneway="1" width="2.00"/>
    <type id="highway.tertiary" priority="10" numLanes="1" speed="22.22" disallow="tram rail_urban rail rail_electric rail_fast ship" oneway="0"/>
    <type id="highway.tertiary_link" priority="5" numLanes="1" speed="22.22" disallow="tram rail_urban rail rail_electric rail_fast ship" oneway="0"/>
    <type id="highway.track" priority="1" numLanes="1" speed="5.56" allow="pedestrian motorcycle moped bicycle" oneway="0"/>
    <type id="highway.trunk" priority="13" numLanes="2" speed="27.78" disallow="pedestrian bicycle tram rail_urban rail rail_electric rail_fast ship" oneway="0"/>
    <type id="highway.trunk_link" priority="8" numLanes="1" speed="22.22" disallow="pedestrian bicycle tram rail_urban rail rail_electric rail_fast ship" oneway="0"/>
    <type id="highway.unclassified" priority="4" numLanes="1" speed="13.89" disallow="tram rail_urban rail rail_electric rail_fast ship" oneway="0"/>
    <type id="highway.unsurfaced" priority="1" numLanes="1" speed="8.33" disallow="tram rail_urban rail rail_electric rail_fast ship" oneway="0"/>
    <type id="railway.highspeed" priority="21" numLanes="1" speed="69.44" allow="rail_fast" oneway="1"/>
    <type id="railway.light_rail" priority="19" numLanes="1" speed="27.78" allow="rail_urban" oneway="1"/>
    <type id="railway.preserved" priority="16" numLanes="1" speed="27.78" allow="rail" oneway="1"/>
    <type id="railway.rail" priority="20" numLanes="1" speed="44.44" allow="rail" oneway="1"/>
    <type id="railway.subway" priority="18" numLanes="1" speed="27.78" allow="rail_urban" oneway="1"/>
    <type id="railway.tram" priority="17" numLanes="1" speed="13.89" allow="tram" oneway="1"/>

    <edge id=":10595723510_0" function="internal">
        <lane id=":10595723510_0_0" index="0" allow="private emergency authority army vip passenger hov taxi bus coach delivery truck trailer motorcycle evehicle custom1 custom2" speed="4.38" length="1.07" shape="384.07,166.59 384.35,166.74 384.52,166.88 384.65,167.05 384.79,167.33"/>
    </edge>
    <edge id=":10595723512_0" function="internal">
        <lane id=":10595723512_0_0" index="0" allow="private emergency authority army vip passenger hov taxi bus coach delivery truck trailer motorcycle evehicle custom1 custom2" speed="6.97" length="8.01" shape="430.38,491.23 429.67,493.44 428.57,495.07 427.11,496.14 425.27,496.63"/>
    </edge>
    <edge id=":10595723512_1" function="internal">
        <lane id=":10595723512_1_0" index="0" allow="private emergency authority army vip passenger hov taxi bus coach delivery truck trailer motorcycle evehicle custom1 custom2" speed="6.41" length="10.79" shape="430.38,491.23 429.99,494.81 430.58,497.28 432.16,498.65 434.71,498.90"/>
    </edge>
    <edge id=":10595723512_2" function="internal">
        <lane id=":10595723512_2_0" index="0" disallow="tram rail_urban rail rail_electric rail_fast ship" speed="11.11" length="9.17" shape="434.40,495.71 425.27,496.63"/>
    </edge>
    <edge id=":10595723512_3" function="internal">
        <lane id=":10595723512_3_0" index="0" disallow="tram rail_urban rail rail_electric rail_fast ship" speed="3.65" length="1.44" shape="434.40,495.71 433.28,496.63"/>
    </edge>
    <edge id=":10595723512_6" function="internal">
        <lane id=":10595723512_6_0" index="0" disallow="tram rail_urban rail rail_electric rail_fast ship" speed="3.65" length="3.23" shape="433.28,496.63 432.96,497.46 433.44,498.22 434.71,498.90"/>
    </edge>
    <edge id=":10595723512_4" function="internal">
        <lane id=":10595723512_4_0" index="0" disallow="tram rail_urban rail rail_electric rail_fast ship" speed="11.11" length="9.16" shape="425.60,499.82 434.71,498.90"/>
    </edge>
    <edge id=":10595723512_5" function="internal">
        <lane id=":10595723512_5_0" index="0" disallow="tram rail_urban rail rail_electric rail_fast ship" speed="3.65" length="1.44" shape="425.60,499.82 426.71,498.90"/>
    </edge>
    <edge id=":10595723512_7" function="internal">
        <lane id=":10595723512_7_0" index="0" disallow="tram rail_urban rail rail_electric rail_fast ship" speed="3.65" length="3.23" shape="426.71,498.90 427.02,498.06 426.54,497.31 425.27,496.63"/>
    </edge>
    <edge id=":1223810705_0" function="internal">
        <lane id=":1223810705_0_0" index="0" allow="private emergency authority army vip passenger hov taxi bus coach delivery truck trailer motorcycle evehicle custom1 custom2" speed="6.96" length="5.58" shape="556.85,359.92 556.20,360.89 555.21,361.67 553.89,362.27 552.24,362.69"/>
    </edge>
    <edge id=":1223810705_1" function="internal">
        <lane id=":1223810705_1_0" index="0" disallow="tram rail_urban rail rail_electric rail_fast ship" speed="16.67" length="6.53" shape="559.76,361.26 558.70,362.84 557.59,363.64 556.40,364.39 555.11,365.84"/>
        <lane id=":1223810705_1_1" index="1" disallow="tram rail_urban rail rail_electric rail_fast ship" speed="16.67" length="6.53" shape="562.66,362.60 561.62,364.18 560.52,364.97 559.34,365.73 558.06,367.17"/>
        <lane id=":1223810705_1_2" index="2" disallow="tram rail_urban rail rail_electric rail_fast ship" speed="16.67" length="6.53" shape="565.57,363.95 564.53,365.51 563.44,366.31 562.28,367.06 561.01,368.50"/>
        <lane id=":1223810705_1_3" index="3" disallow="tram rail_urban rail rail_electric rail_fast ship" speed="16.67" length="6.53" shape="568.47,365.29 567.45,366.85 566.37,367.65 565.22,368.40 563.96,369.84"/>
        <lane id=":1223810705_1_4" index="4" disallow="tram rail_urban rail rail_electric rail_fast ship" speed="16.67" length="6.53" shape="571.38,366.63 570.36,368.18 569.30,368.98 568.16,369.74 566.92,371.17"/>
    </edge>
    <edge id=":1223810705_6" function="internal">
        <lane id=":1223810705_6_0" index="0" allow="bus bicycle" speed="3.65" length="1.30" shape="571.38,366.63 571.58,367.92"/>
    </edge>
    <edge id=":1223810705_10" function="internal">
        <lane id=":1223810705_10_0" index="0" allow="bus bicycle" speed="3.65" length="3.37" shape="571.58,367.92 571.60,368.06 572.16,368.75 573.05,368.73 574.28,367.97"/>
    </edge>
    <edge id=":1223810705_7" function="internal">
        <lane id=":1223810705_7_0" index="0" allow="bus bicycle" speed="16.67" length="6.41" shape="569.87,372.50 571.10,371.08 572.22,370.32 573.27,369.52 574.28,367.97"/>
    </edge>
    <edge id=":1223810705_8" function="internal">
        <lane id=":1223810705_8_0" index="0" allow="bus" speed="8.64" length="1.45" shape="569.87,372.50 570.20,371.09"/>
    </edge>
    <edge id=":1223810705_9" function="internal">
        <lane id=":1223810705_9_0" index="0" allow="bus bicycle" speed="3.66" length="1.20" shape="569.87,372.50 569.67,371.31"/>
    </edge>
    <edge id=":1223810705_11" function="internal">
        <lane id=":1223810705_11_0" index="0" allow="bus" speed="8.64" length="24.94" shape="570.20,371.09 571.24,366.73 567.48,363.33 560.51,362.07 552.24,362.69"/>
    </edge>
    <edge id=":1223810705_12" function="internal">
        <lane id=":1223810705_12_0" index="0" allow="bus bicycle" speed="3.66" length="3.53" shape="569.67,371.31 569.63,371.06 569.06,370.36 568.15,370.40 566.92,371.17"/>
    </edge>
    <edge id=":1538181428_0" function="internal">
        <lane id=":1538181428_0_0" index="0" allow="bus bicycle" speed="16.67" length="9.04" shape="622.85,318.10 622.42,320.64 623.02,322.65 623.46,324.54 622.51,326.77"/>
    </edge>
    <edge id=":1538181428_1" function="internal">
        <lane id=":1538181428_1_0" index="0" allow="bus" speed="9.07" length="5.26" shape="622.85,318.10 622.51,323.35"/>
    </edge>
    <edge id=":1538181428_2" function="internal">
        <lane id=":1538181428_2_0" index="0" allow="bus bicycle" speed="3.65" length="1.44" shape="622.85,318.10 623.08,319.52"/>
    </edge>
    <edge id=":1538181428_9" function="internal">
        <lane id=":1538181428_9_0" index="0" allow="bus" speed="9.07" length="20.73" shape="622.51,323.35 626.65,326.10 633.76,326.96 642.35,326.56"/>
    </edge>
    <edge id=":1538181428_10" function="internal">
        <lane id=":1538181428_10_0" index="0" allow="bus bicycle" speed="3.65" length="3.23" shape="623.08,319.52 623.64,320.22 624.53,320.20 625.76,319.44"/>
    </edge>
    <edge id=":1538181428_3" function="internal">
        <lane id=":1538181428_3_0" index="0" allow="private emergency authority army vip passenger hov taxi bus coach delivery truck trailer motorcycle evehicle custom1 custom2" speed="11.76" length="13.08" shape="632.48,334.80 635.49,331.32 638.14,328.78 640.42,327.20 642.35,326.56"/>
    </edge>
    <edge id=":1538181428_4" function="internal">
        <lane id=":1538181428_4_0" index="0" disallow="tram rail_urban rail rail_electric rail_fast ship" speed="16.67" length="10.76" shape="632.48,334.80 633.98,331.87 633.93,329.41 633.66,326.81 634.48,323.46"/>
        <lane id=":1538181428_4_1" index="1" disallow="tram rail_urban rail rail_electric rail_fast ship" speed="16.67" length="10.76" shape="629.99,332.79 631.35,330.04 631.20,327.72 630.85,325.27 631.57,322.12"/>
        <lane id=":1538181428_4_2" index="2" disallow="tram rail_urban rail rail_electric rail_fast ship" speed="16.67" length="10.76" shape="627.50,330.79 628.72,328.21 628.48,326.03 628.04,323.72 628.67,320.78"/>
        <lane id=":1538181428_4_3" index="3" disallow="tram rail_urban rail rail_electric rail_fast ship" speed="16.67" length="10.76" shape="625.00,328.78 626.09,326.38 625.75,324.34 625.23,322.18 625.76,319.44"/>
    </edge>
    <edge id=":1538181428_8" function="internal">
        <lane id=":1538181428_8_0" index="0" allow="bus bicycle" speed="3.65" length="1.44" shape="625.00,328.78 625.13,327.34"/>
    </edge>
    <edge id=":1538181428_11" function="internal">
        <lane id=":1538181428_11_0" index="0" allow="bus bicycle" speed="3.65" length="3.23" shape="625.13,327.34 624.76,326.53 623.89,326.34 622.51,326.77"/>
    </edge>
    <edge id=":1538181447_0" function="internal">
        <lane id=":1538181447_0_0" index="0" allow="bus bicycle" speed="16.67" length="17.62" shape="572.59,388.74 560.82,401.85"/>
    </edge>
    <edge id=":1538181447_1" function="internal">
        <lane id=":1538181447_1_0" index="0" allow="bus bicycle" speed="3.65" length="4.67" shape="572.59,388.74 572.38,390.16 572.71,391.00 573.58,391.23 574.97,390.87"/>
    </edge>
    <edge id=":1538181447_2" function="internal">
        <lane id=":1538181447_2_0" index="0" disallow="tram rail_urban rail rail_electric rail_fast ship" speed="16.67" length="17.64" shape="567.96,408.27 579.74,395.14"/>
        <lane id=":1538181447_2_1" index="1" disallow="tram rail_urban rail rail_electric rail_fast ship" speed="16.67" length="17.64" shape="565.58,406.13 577.36,393.00"/>
        <lane id=":1538181447_2_2" index="2" disallow="tram rail_urban rail rail_electric rail_fast ship" speed="16.67" length="17.64" shape="563.20,403.99 574.97,390.87"/>
    </edge>
    <edge id=":1538181447_5" function="internal">
        <lane id=":1538181447_5_0" index="0" allow="bus bicycle" speed="3.65" length="1.44" shape="563.20,403.99 563.41,402.57"/>
    </edge>
    <edge id=":1538181447_10" function="internal">
        <lane id=":1538181447_10_0" index="0" allow="bus bicycle" speed="3.65" length="3.23" shape="563.41,402.57 563.08,401.73 562.22,401.50 560.82,401.85"/>
    </edge>
    <edge id=":1538181447_6" function="internal">
        <lane id=":1538181447_6_0" index="0" allow="bus" speed="6.21" length="8.50" shape="560.71,394.50 562.19,396.13 562.70,397.90 562.24,399.81 560.82,401.85"/>
    </edge>
    <edge id=":1538181447_7" function="internal">
        <lane id=":1538181447_7_0" index="0" allow="private emergency authority army vip passenger hov taxi bus coach delivery truck trailer motorcycle evehicle custom1 custom2" speed="9.91" length="3.29" shape="560.71,394.50 563.50,396.25"/>
        <lane id=":1538181447_7_1" index="1" allow="private emergency authority army vip passenger hov taxi bus coach delivery truck trailer motorcycle evehicle custom1 custom2" speed="8.75" length="3.48" shape="562.71,391.99 565.64,393.87"/>
        <lane id=":1538181447_7_2" index="2" allow="private emergency authority army vip passenger hov taxi bus coach delivery truck trailer motorcycle evehicle custom1 custom2" speed="7.42" length="3.68" shape="564.70,389.49 567.77,391.52"/>
    </edge>
    <edge id=":1538181447_11" function="internal">
        <lane id=":1538181447_11_0" index="0" allow="private emergency authority army vip passenger hov taxi bus coach delivery truck trailer motorcycle evehicle custom1 custom2" speed="9.91" length="18.07" shape="563.50,396.25 566.20,397.95 571.20,399.21 575.71,398.27 579.74,395.14"/>
    </edge>
    <edge id=":1538181447_12" function="internal">
        <lane id=":1538181447_12_0" index="0" allow="private emergency authority army vip passenger hov taxi bus coach delivery truck trailer motorcycle evehicle custom1 custom2" speed="8.75" length="12.94" shape="565.64,393.87 567.03,394.77 570.91,395.86 574.35,395.27 577.36,393.00"/>
    </edge>
    <edge id=":1538181447_13" function="internal">
        <lane id=":1538181447_13_0" index="0" allow="private emergency authority army vip passenger hov taxi bus coach delivery truck trailer motorcycle evehicle custom1 custom2" speed="7.42" length="7.84" shape="567.77,391.52 567.86,391.58 570.63,392.51 573.00,392.27 574.97,390.87"/>
    </edge>
    <edge id=":1538181454_0" function="internal">
        <lane id=":1538181454_0_0" index="0" disallow="tram rail_urban rail rail_electric rail_fast ship" speed="16.67" length="8.76" shape="531.87,399.83 530.57,401.95 530.32,403.81 530.07,405.66 528.74,407.75"/>
        <lane id=":1538181454_0_1" index="1" disallow="tram rail_urban rail rail_electric rail_fast ship" speed="16.67" length="8.76" shape="534.20,402.02 532.89,404.15 532.64,406.01 532.38,407.87 531.04,409.97"/>
        <lane id=":1538181454_0_2" index="2" disallow="tram rail_urban rail rail_electric rail_fast ship" speed="16.67" length="8.76" shape="536.54,404.20 535.22,406.34 534.96,408.22 534.69,410.09 533.33,412.20"/>
    </edge>
    <edge id=":1538181454_3" function="internal">
        <lane id=":1538181454_3_0" index="0" allow="bus bicycle" speed="16.67" length="8.08" shape="535.63,414.43 541.21,408.58"/>
    </edge>
    <edge id=":1541260518_0" function="internal">
        <lane id=":1541260518_0_0" index="0" allow="private emergency authority army vip passenger hov taxi bus coach delivery truck trailer motorcycle evehicle custom1 custom2" speed="13.89" length="0.29" shape="928.62,335.09 928.34,335.05"/>
    </edge>
    <edge id=":1541260729_0" function="internal">
        <lane id=":1541260729_0_0" index="0" allow="bus bicycle" speed="16.67" length="31.99" shape="668.69,218.01 666.39,223.98 662.53,232.75 658.51,241.47 655.75,247.26"/>
    </edge>
    <edge id=":1541260729_1" function="internal">
        <lane id=":1541260729_1_0" index="0" allow="bus bicycle" speed="3.65" length="1.44" shape="668.69,218.01 669.12,219.39"/>
    </edge>
    <edge id=":1541260729_10" function="internal">
        <lane id=":1541260729_10_0" index="0" allow="bus bicycle" speed="3.65" length="3.23" shape="669.12,219.39 669.78,219.99 670.66,219.83 671.76,218.90"/>
    </edge>
    <edge id=":1541260729_2" function="internal">
        <lane id=":1541260729_2_0" index="0" disallow="moped bicycle tram rail_urban rail rail_electric rail_fast ship" speed="15.28" length="32.11" shape="675.57,252.43 674.90,249.39 675.57,243.23 677.60,233.97 680.98,221.58"/>
        <lane id=":1541260729_2_1" index="1" disallow="moped bicycle tram rail_urban rail rail_electric rail_fast ship" speed="15.28" length="32.11" shape="675.57,252.43 673.76,248.29 673.54,241.62 674.93,232.42 677.91,220.69"/>
    </edge>
    <edge id=":1541260729_4" function="internal">
        <lane id=":1541260729_4_0" index="0" allow="bus" speed="9.27" length="24.98" shape="675.57,252.43 669.87,246.80 664.46,243.31 659.65,243.08 655.75,247.26"/>
    </edge>
    <edge id=":1541260729_5" function="internal">
        <lane id=":1541260729_5_0" index="0" disallow="tram rail_urban rail rail_electric rail_fast ship" speed="16.67" length="33.11" shape="667.48,252.41 672.08,243.50 675.26,237.40 677.94,231.10 680.98,221.58"/>
        <lane id=":1541260729_5_1" index="1" disallow="tram rail_urban rail rail_electric rail_fast ship" speed="16.67" length="33.11" shape="664.55,251.12 669.09,242.32 672.25,236.30 674.90,230.08 677.91,220.69"/>
        <lane id=":1541260729_5_2" index="2" disallow="tram rail_urban rail rail_electric rail_fast ship" speed="16.67" length="33.11" shape="661.62,249.83 666.10,241.15 669.23,235.21 671.86,229.07 674.83,219.80"/>
        <lane id=":1541260729_5_3" index="3" disallow="tram rail_urban rail rail_electric rail_fast ship" speed="16.67" length="33.11" shape="658.68,248.54 663.12,239.97 666.22,234.11 668.82,228.06 671.76,218.90"/>
    </edge>
    <edge id=":1541260729_9" function="internal">
        <lane id=":1541260729_9_0" index="0" allow="bus bicycle" speed="3.65" length="1.44" shape="658.68,248.54 658.43,247.12"/>
    </edge>
    <edge id=":1541260729_11" function="internal">
        <lane id=":1541260729_11_0" index="0" allow="bus bicycle" speed="3.65" length="3.23" shape="658.43,247.12 657.86,246.43 656.97,246.48 655.75,247.26"/>
    </edge>
    <edge id=":1717601209_0" function="internal">
        <lane id=":1717601209_0_0" index="0" disallow="pedestrian tram rail_urban rail rail_electric rail_fast ship" speed="11.11" length="0.73" shape="452.97,493.74 452.75,493.73 452.61,493.73 452.46,493.74 452.24,493.77"/>
    </edge>
    <edge id=":1717601209_1" function="internal">
        <lane id=":1717601209_1_0" index="0" disallow="pedestrian tram rail_urban rail rail_electric rail_fast ship" speed="11.11" length="0.24" shape="452.59,496.95 452.67,496.94 452.71,496.94 452.76,496.94 452.84,496.94"/>
    </edge>
    <edge id=":1717601211_0" function="internal">
        <lane id=":1717601211_0_0" index="0" disallow="pedestrian tram rail_urban rail rail_electric rail_fast ship" speed="11.11" length="0.28" shape="436.71,495.48 436.44,495.51"/>
    </edge>
    <edge id=":1717601211_1" function="internal">
        <lane id=":1717601211_1_0" index="0" disallow="pedestrian tram rail_urban rail rail_electric rail_fast ship" speed="11.11" length="0.31" shape="436.75,498.70 437.06,498.66"/>
    </edge>
    <edge id=":174555658-AddedOffRampNode_0" function="internal">
        <lane id=":174555658-AddedOffRampNode_0_0" index="0" allow="private emergency authority army vip passenger hov taxi bus coach delivery truck trailer motorcycle evehicle custom1 custom2" speed="22.22" length="8.16" shape="142.25,72.30 144.44,73.53 145.57,75.04 146.71,76.56 148.90,77.78"/>
        <lane id=":174555658-AddedOffRampNode_0_1" index="1" allow="private emergency authority army vip passenger hov taxi bus coach delivery truck trailer motorcycle evehicle custom1 custom2" speed="22.22" length="8.16" shape="142.25,72.30 149.87,74.73"/>
        <lane id=":174555658-AddedOffRampNode_0_2" index="2" allow="private emergency authority army vip passenger hov taxi bus coach delivery truck trailer motorcycle evehicle custom1 custom2" speed="22.22" length="8.16" shape="143.22,69.25 150.84,71.68"/>
        <lane id=":174555658-AddedOffRampNode_0_3" index="3" allow="private emergency authority army vip passenger hov taxi bus coach delivery truck trailer motorcycle evehicle custom1 custom2" speed="22.22" length="8.16" shape="144.19,66.20 151.81,68.63"/>
        <lane id=":174555658-AddedOffRampNode_0_4" index="4" allow="private emergency authority army vip passenger hov taxi bus coach delivery truck trailer motorcycle evehicle custom1 custom2" speed="22.22" length="8.16" shape="145.16,63.15 152.78,65.58"/>
    </edge>
    <edge id=":245585677_0" function="internal">
        <lane id=":245585677_0_0" index="0" allow="private emergency authority army vip passenger hov taxi bus coach delivery truck trailer motorcycle evehicle custom1 custom2" speed="13.89" length="0.28" shape="484.78,217.53 485.02,217.67"/>
    </edge>
    <edge id=":245585922_0" function="internal">
        <lane id=":245585922_0_0" index="0" allow="private emergency authority army vip passenger hov taxi bus coach delivery truck trailer motorcycle evehicle custom1 custom2" speed="13.89" length="13.92" shape="348.11,147.44 352.13,149.21 355.01,150.78 357.50,152.32 360.35,154.01"/>
    </edge>
    <edge id=":245585922_1" function="internal">
        <lane id=":245585922_1_0" index="0" allow="private emergency authority army vip passenger hov taxi bus coach delivery truck trailer motorcycle evehicle custom1 custom2" speed="13.89" length="14.09" shape="349.30,144.47 353.35,146.32 356.25,148.00 358.80,149.53 361.80,150.93"/>
    </edge>
    <edge id=":245586114_0" function="internal">
        <lane id=":245586114_0_0" index="0" disallow="tram rail_urban rail rail_electric rail_fast ship" speed="15.41" length="9.75" shape="688.02,84.47 690.69,84.75 692.32,85.86 693.87,87.39 696.33,88.95"/>
    </edge>
    <edge id=":248018742_0" function="internal">
        <lane id=":248018742_0_0" index="0" allow="private emergency authority army vip passenger hov taxi bus coach delivery truck trailer motorcycle evehicle custom1 custom2" speed="13.89" length="3.42" shape="932.65,335.17 931.65,335.31 930.96,335.36 930.26,335.32 929.26,335.18"/>
    </edge>
    <edge id=":248018742_1" function="internal">
        <lane id=":248018742_1_0" index="0" allow="private emergency authority army vip passenger hov taxi bus coach delivery truck trailer motorcycle evehicle custom1 custom2" speed="13.89" length="5.29" shape="933.12,338.34 929.22,335.54"/>
        <lane id=":248018742_1_1" index="1" allow="private emergency authority army vip passenger hov taxi bus coach delivery truck trailer motorcycle evehicle custom1 custom2" speed="13.89" length="5.29" shape="933.58,341.51 932.08,341.24 931.21,340.27 930.35,339.22 928.83,338.74"/>
    </edge>
    <edge id=":2641636566_0" function="internal">
        <lane id=":2641636566_0_0" index="0" allow="bus bicycle" speed="3.65" length="4.67" shape="788.38,18.11 788.22,16.67 787.70,15.95 786.80,15.94 785.54,16.63"/>
    </edge>
    <edge id=":2641636586_0" function="internal">
        <lane id=":2641636586_0_0" index="0" disallow="tram rail_urban rail rail_electric rail_fast ship" speed="10.41" length="12.94" shape="739.84,66.78 738.16,68.84 735.73,70.45 732.56,71.60 728.63,72.29"/>
    </edge>
    <edge id=":2641636586_1" function="internal">
        <lane id=":2641636586_1_0" index="0" disallow="tram rail_urban rail rail_electric rail_fast ship" speed="16.67" length="13.23" shape="739.84,66.78 737.75,69.73 735.83,71.36 733.73,72.86 731.11,75.44"/>
        <lane id=":2641636586_1_1" index="1" disallow="tram rail_urban rail rail_electric rail_fast ship" speed="16.67" length="13.23" shape="742.62,68.36 740.45,71.45 738.47,73.18 736.30,74.78 733.57,77.49"/>
        <lane id=":2641636586_1_2" index="2" disallow="tram rail_urban rail rail_electric rail_fast ship" speed="16.67" length="13.23" shape="745.40,69.94 743.15,73.18 741.10,75.01 738.86,76.70 736.03,79.54"/>
        <lane id=":2641636586_1_3" index="3" disallow="tram rail_urban rail rail_electric rail_fast ship" speed="16.67" length="13.23" shape="748.18,71.52 745.85,74.91 743.74,76.83 741.43,78.62 738.49,81.58"/>
    </edge>
    <edge id=":2641636610_0" function="internal">
        <lane id=":2641636610_0_0" index="0" disallow="tram rail_urban rail rail_electric rail_fast ship" speed="8.74" length="12.16" shape="701.55,94.31 702.04,96.29 701.66,98.67 700.41,101.45 698.28,104.63"/>
        <lane id=":2641636610_0_1" index="1" disallow="tram rail_urban rail rail_electric rail_fast ship" speed="9.33" length="12.16" shape="701.55,94.31 702.81,97.59 703.11,100.72 702.46,103.71 700.84,106.56"/>
    </edge>
    <edge id=":2641636610_2" function="internal">
        <lane id=":2641636610_2_0" index="0" disallow="tram rail_urban rail rail_electric rail_fast ship" speed="16.67" length="11.33" shape="708.82,102.37 706.20,103.88 703.50,103.45 700.82,103.05 698.28,104.63"/>
        <lane id=":2641636610_2_1" index="1" disallow="tram rail_urban rail rail_electric rail_fast ship" speed="16.67" length="11.33" shape="711.31,104.39 708.70,105.88 706.02,105.43 703.36,105.01 700.84,106.56"/>
        <lane id=":2641636610_2_2" index="2" disallow="tram rail_urban rail rail_electric rail_fast ship" speed="16.67" length="11.33" shape="713.79,106.41 711.20,107.87 708.53,107.40 705.89,106.96 703.39,108.49"/>
        <lane id=":2641636610_2_3" index="3" disallow="tram rail_urban rail rail_electric rail_fast ship" speed="16.67" length="11.33" shape="716.27,108.43 713.70,109.87 711.05,109.38 708.43,108.91 705.94,110.42"/>
    </edge>
    <edge id=":2641636610_6" function="internal">
        <lane id=":2641636610_6_0" index="0" allow="bus bicycle" speed="3.65" length="2.34" shape="708.50,112.35 708.58,110.91 708.18,110.11"/>
    </edge>
    <edge id=":2641636610_7" function="internal">
        <lane id=":2641636610_7_0" index="0" allow="bus bicycle" speed="3.65" length="2.34" shape="708.18,110.11 707.31,109.95 705.94,110.42"/>
    </edge>
    <edge id=":2668120437_0" function="internal">
        <lane id=":2668120437_0_0" index="0" disallow="tram rail_urban rail rail_electric rail_fast ship" speed="16.66" length="7.10" shape="709.46,74.07 707.37,74.07 705.95,73.80 704.52,73.47 702.43,73.35"/>
    </edge>
    <edge id=":2668120437_1" function="internal">