<?xml version="1.0" encoding="UTF-8"?>

<!-- generated on 2023-07-20 11:33:16 by Eclipse SUMO netconvert Version 1.17.0
<configuration xmlns:xsi="http://www.w3.org/2001/XMLSchema-instance" xsi:noNamespaceSchemaLocation="http://sumo.dlr.de/xsd/netconvertConfiguration.xsd">

    <input>
        <sumo-net-file value="osm.net.xml.gz"/>
    </input>

    <output>
        <output-file value="osm.net.xml"/>
        <output.street-names value="true"/>
    </output>

    <processing>
        <geometry.min-radius.fix.railways value="false"/>
        <geometry.max-grade.fix value="false"/>
        <offset.disable-normalization value="true"/>
        <lefthand value="1"/>
    </processing>

    <junctions>
        <no-turnarounds value="true"/>
        <junctions.corner-detail value="5"/>
        <junctions.limit-turn-speed value="5.50"/>
        <rectangular-lane-cut value="0"/>
    </junctions>

    <pedestrian>
        <walkingareas value="0"/>
    </pedestrian>

</configuration>
-->

<net version="1.16" junctionCornerDetail="5" lefthand="true" limitTurnSpeed="5.50" xmlns:xsi="http://www.w3.org/2001/XMLSchema-instance" xsi:noNamespaceSchemaLocation="http://sumo.dlr.de/xsd/net_file.xsd">

    <location netOffset="-373618.46,-146268.91" convBoundary="0.00,0.00,1090.79,927.49" origBoundary="103.864012,1.323081,103.873815,1.331469" projParameter="+proj=utm +zone=48 +ellps=WGS84 +datum=WGS84 +units=m +no_defs"/>

    <type id="highway.bridleway" priority="1" numLanes="1" speed="2.78" allow="pedestrian" oneway="1" width="2.00"/>
    <type id="highway.bus_guideway" priority="1" numLanes="1" speed="27.78" allow="bus" oneway="1"/>
    <type id="highway.cycleway" priority="1" numLanes="1" speed="5.56" allow="bicycle" oneway="0" width="1.00"/>
    <type id="highway.footway" priority="1" numLanes="1" speed="2.78" allow="pedestrian" oneway="1" width="2.00"/>
    <type id="highway.ford" priority="1" numLanes="1" speed="2.78" allow="army" oneway="0"/>
    <type id="highway.living_street" priority="2" numLanes="1" speed="2.78" disallow="tram rail_urban rail rail_electric rail_fast ship" oneway="0"/>
    <type id="highway.motorway" priority="14" numLanes="2" speed="39.44" allow="private emergency authority army vip passenger hov taxi bus coach delivery truck trailer motorcycle evehicle custom1 custom2" oneway="1"/>
    <type id="highway.motorway_link" priority="9" numLanes="1" speed="22.22" allow="private emergency authority army vip passenger hov taxi bus coach delivery truck trailer motorcycle evehicle custom1 custom2" oneway="1"/>
    <type id="highway.path" priority="1" numLanes="1" speed="5.56" allow="pedestrian bicycle" oneway="0" width="2.00"/>
    <type id="highway.pedestrian" priority="1" numLanes="1" speed="2.78" allow="pedestrian" oneway="1" width="2.00"/>
    <type id="highway.primary" priority="12" numLanes="2" speed="27.78" disallow="tram rail_urban rail rail_electric rail_fast ship" oneway="0"/>
    <type id="highway.primary_link" priority="7" numLanes="1" speed="22.22" disallow="tram rail_urban rail rail_electric rail_fast ship" oneway="0"/>
    <type id="highway.raceway" priority="15" numLanes="2" speed="83.33" allow="vip" oneway="0"/>
    <type id="highway.residential" priority="3" numLanes="1" speed="13.89" disallow="tram rail_urban rail rail_electric rail_fast ship" oneway="0"/>
    <type id="highway.secondary" priority="11" numLanes="1" speed="27.78" disallow="tram rail_urban rail rail_electric rail_fast ship" oneway="0"/>
    <type id="highway.secondary_link" priority="6" numLanes="1" speed="22.22" disallow="tram rail_urban rail rail_electric rail_fast ship" oneway="0"/>
    <type id="highway.service" priority="1" numLanes="1" speed="5.56" allow="pedestrian delivery bicycle" oneway="0"/>
    <type id="highway.stairs" priority="1" numLanes="1" speed="1.39" allow="pedestrian" oneway="1" width="2.00"/>
    <type id="highway.step" priority="1" numLanes="1" speed="1.39" allow="pedestrian" oneway="1" width="2.00"/>
    <type id="highway.steps" priority="1" numLanes="1" speed="1.39" allow="pedestrian" oneway="1" width="2.00"/>
    <type id="highway.tertiary" priority="10" numLanes="1" speed="22.22" disallow="tram rail_urban rail rail_electric rail_fast ship" oneway="0"/>
    <type id="highway.tertiary_link" priority="5" numLanes="1" speed="22.22" disallow="tram rail_urban rail rail_electric rail_fast ship" oneway="0"/>
    <type id="highway.track" priority="1" numLanes="1" speed="5.56" allow="pedestrian motorcycle moped bicycle" oneway="0"/>
    <type id="highway.trunk" priority="13" numLanes="2" speed="27.78" disallow="pedestrian bicycle tram rail_urban rail rail_electric rail_fast ship" oneway="0"/>
    <type id="highway.trunk_link" priority="8" numLanes="1" speed="22.22" disallow="pedestrian bicycle tram rail_urban rail rail_electric rail_fast ship" oneway="0"/>
    <type id="highway.unclassified" priority="4" numLanes="1" speed="13.89" disallow="tram rail_urban rail rail_electric rail_fast ship" oneway="0"/>
    <type id="highway.unsurfaced" priority="1" numLanes="1" speed="8.33" disallow="tram rail_urban rail rail_electric rail_fast ship" oneway="0"/>
    <type id="railway.highspeed" priority="21" numLanes="1" speed="69.44" allow="rail_fast" oneway="1"/>
    <type id="railway.light_rail" priority="19" numLanes="1" speed="27.78" allow="rail_urban" oneway="1"/>
    <type id="railway.preserved" priority="16" numLanes="1" speed="27.78" allow="rail" oneway="1"/>
    <type id="railway.rail" priority="20" numLanes="1" speed="44.44" allow="rail" oneway="1"/>
    <type id="railway.subway" priority="18" numLanes="1" speed="27.78" allow="rail_urban" oneway="1"/>
    <type id="railway.tram" priority="17" numLanes="1" speed="13.89" allow="tram" oneway="1"/>

    <edge id=":139642645_0" function="internal">
        <lane id=":139642645_0_0" index="0" allow="private emergency authority army vip passenger hov taxi bus coach delivery truck trailer motorcycle evehicle custom1 custom2" speed="18.05" length="56.43" shape="694.08,375.17 679.78,388.23 667.45,398.31 658.16,406.41 652.97,413.54"/>
        <lane id=":139642645_0_1" index="1" allow="private emergency authority army vip passenger hov taxi bus coach delivery truck trailer motorcycle evehicle custom1 custom2" speed="18.05" length="54.98" shape="696.20,377.57 682.25,390.23 670.19,399.91 661.07,407.71 655.95,414.72"/>
    </edge>
    <edge id=":139642645_2" function="internal">
        <lane id=":139642645_2_0" index="0" allow="private emergency authority army vip passenger hov taxi bus coach delivery truck trailer motorcycle evehicle custom1 custom2" speed="22.22" length="52.57" shape="698.32,379.98 658.60,414.34"/>
        <lane id=":139642645_2_1" index="1" allow="private emergency authority army vip passenger hov taxi bus coach delivery truck trailer motorcycle evehicle custom1 custom2" speed="22.22" length="52.57" shape="700.44,382.39 660.69,416.77"/>
        <lane id=":139642645_2_2" index="2" allow="private emergency authority army vip passenger hov taxi bus coach delivery truck trailer motorcycle evehicle custom1 custom2" speed="22.22" length="52.57" shape="702.56,384.79 662.77,419.19"/>
        <lane id=":139642645_2_3" index="3" allow="private emergency authority army vip passenger hov taxi bus coach delivery truck trailer motorcycle evehicle custom1 custom2" speed="22.22" length="52.57" shape="704.67,387.20 664.86,421.62"/>
    </edge>
    <edge id=":1531151904_0" function="internal">
        <lane id=":1531151904_0_0" index="0" allow="private emergency authority army vip passenger hov taxi bus coach delivery truck trailer motorcycle evehicle custom1 custom2" speed="8.60" length="7.76" shape="617.49,522.46 617.78,520.17 618.37,518.25 619.25,516.71 620.43,515.54"/>
    </edge>
    <edge id=":1531151904_1" function="internal">
        <lane id=":1531151904_1_0" index="0" allow="private emergency authority army vip passenger hov taxi bus coach delivery truck trailer motorcycle evehicle custom1 custom2" speed="13.89" length="8.21" shape="613.56,520.20 620.43,515.54"/>
        <lane id=":1531151904_1_1" index="1" allow="private emergency authority army vip passenger hov taxi bus coach delivery truck trailer motorcycle evehicle custom1 custom2" speed="13.89" length="8.21" shape="611.80,517.53 618.52,512.97"/>
    </edge>
    <edge id=":1531151911_0" function="internal">
        <lane id=":1531151911_0_0" index="0" disallow="tram rail_urban rail rail_electric rail_fast ship" speed="13.89" length="10.15" shape="743.55,584.64 740.64,583.84 738.66,583.26 736.72,582.55 733.94,581.40"/>
        <lane id=":1531151911_0_1" index="1" disallow="tram rail_urban rail rail_electric rail_fast ship" speed="13.89" length="10.77" shape="742.69,587.72 739.61,586.87 737.51,586.25 735.46,585.49 732.51,584.27"/>
    </edge>
    <edge id=":1531151911_2" function="internal">
        <lane id=":1531151911_2_0" index="0" disallow="tram rail_urban rail rail_electric rail_fast ship" speed="13.89" length="7.99" shape="741.83,590.81 734.09,588.85"/>
    </edge>
    <edge id=":1531151911_3" function="internal">
        <lane id=":1531151911_3_0" index="0" allow="bus bicycle" speed="3.65" length="4.67" shape="741.83,590.81 740.46,591.26 739.86,591.92 740.03,592.80 740.98,593.89"/>
    </edge>
    <edge id=":1531151912_0" function="internal">
        <lane id=":1531151912_0_0" index="0" disallow="pedestrian tram rail_urban rail rail_electric rail_fast ship" speed="13.89" length="0.31" shape="380.71,413.52 380.74,413.56 380.76,413.58 380.78,413.61 380.81,413.64"/>
        <lane id=":1531151912_0_1" index="1" disallow="pedestrian tram rail_urban rail rail_electric rail_fast ship" speed="13.89" length="0.31" shape="383.13,411.42 383.22,411.53 383.28,411.60 383.33,411.68 383.42,411.79"/>
    </edge>
    <edge id=":1531151919_0" function="internal">
        <lane id=":1531151919_0_0" index="0" allow="private emergency authority army vip passenger hov taxi bus coach delivery truck trailer motorcycle evehicle custom1 custom2" speed="13.89" length="31.71" shape="648.24,553.29 639.39,551.06 631.95,547.80 625.92,543.51 621.29,538.18"/>
    </edge>
    <edge id=":1531151919_1" function="internal">
        <lane id=":1531151919_1_0" index="0" disallow="tram rail_urban rail rail_electric rail_fast ship" speed="13.89" length="29.44" shape="648.24,553.29 639.85,551.52 634.25,549.71 628.80,547.40 620.84,544.09"/>
        <lane id=":1531151919_1_1" index="1" disallow="tram rail_urban rail rail_electric rail_fast ship" speed="13.89" length="29.44" shape="647.68,556.44 639.16,554.65 633.47,552.83 627.93,550.49 619.85,547.14"/>
        <lane id=":1531151919_1_2" index="2" disallow="tram rail_urban rail rail_electric rail_fast ship" speed="13.89" length="29.44" shape="647.11,559.59 638.46,557.78 632.69,555.94 627.06,553.58 618.86,550.19"/>
    </edge>
    <edge id=":1531151926_0" function="internal">
        <lane id=":1531151926_0_0" index="0" disallow="pedestrian tram rail_urban rail rail_electric rail_fast ship" speed="13.89" length="0.10" shape="581.99,554.76 581.99,554.76"/>
    </edge>
    <edge id=":1531151932_0" function="internal">
        <lane id=":1531151932_0_0" index="0" disallow="tram rail_urban rail rail_electric rail_fast ship" speed="16.67" length="0.30" shape="467.34,403.94 467.31,403.63"/>
        <lane id=":1531151932_0_1" index="1" disallow="tram rail_urban rail rail_electric rail_fast ship" speed="16.67" length="0.30" shape="464.15,404.24 464.13,403.94"/>
        <lane id=":1531151932_0_2" index="2" disallow="tram rail_urban rail rail_electric rail_fast ship" speed="16.67" length="0.30" shape="460.97,404.54 460.94,404.25"/>
    </edge>
    <edge id=":1531151933_0" function="internal">
        <lane id=":1531151933_0_0" index="0" disallow="pedestrian tram rail_urban rail rail_electric rail_fast ship" speed="15.28" length="28.87" shape="481.16,501.52 479.23,497.33 477.20,491.33 475.36,483.47 474.00,473.72"/>
    </edge>
    <edge id=":1531151933_1" function="internal">
        <lane id=":1531151933_1_0" index="0" disallow="pedestrian tram rail_urban rail rail_electric rail_fast ship" speed="16.67" length="29.09" shape="477.42,502.24 476.02,495.67 474.13,489.82 472.24,483.12 470.81,474.02"/>
        <lane id=":1531151933_1_1" index="1" disallow="pedestrian tram rail_urban rail rail_electric rail_fast ship" speed="16.67" length="29.09" shape="474.25,502.66 472.85,496.09 470.96,490.21 469.05,483.47 467.62,474.33"/>
    </edge>
    <edge id=":1531151942_0" function="internal">
        <lane id=":1531151942_0_0" index="0" disallow="pedestrian tram rail_urban rail rail_electric rail_fast ship" speed="15.28" length="0.49" shape="495.37,642.25 495.39,642.32 495.41,642.37 495.42,642.41 495.44,642.49"/>
        <lane id=":1531151942_0_1" index="1" disallow="pedestrian tram rail_urban rail rail_electric rail_fast ship" speed="15.28" length="0.49" shape="498.36,641.11 498.43,641.31 498.48,641.46 498.52,641.60 498.57,641.82"/>
    </edge>
    <edge id=":1531151945_0" function="internal">
        <lane id=":1531151945_0_0" index="0" disallow="pedestrian tram rail_urban rail rail_electric rail_fast ship" speed="16.67" length="0.27" shape="512.00,648.74 511.95,648.43"/>
        <lane id=":1531151945_0_1" index="1" disallow="pedestrian tram rail_urban rail rail_electric rail_fast ship" speed="16.67" length="0.27" shape="508.84,649.25 508.80,649.02"/>
    </edge>
    <edge id=":1852234184_0" function="internal">
        <lane id=":1852234184_0_0" index="0" disallow="tram rail_urban rail rail_electric rail_fast ship" speed="13.89" length="24.41" shape="505.99,603.97 493.44,583.01"/>
        <lane id=":1852234184_0_1" index="1" disallow="tram rail_urban rail rail_electric rail_fast ship" speed="13.89" length="24.41" shape="503.24,605.60 490.71,584.67"/>
    </edge>
    <edge id=":1852234184_2" function="internal">
        <lane id=":1852234184_2_0" index="0" disallow="tram rail_urban rail rail_electric rail_fast ship" speed="13.89" length="11.32" shape="494.76,603.48 504.58,598.30"/>
        <lane id=":1852234184_2_1" index="1" disallow="tram rail_urban rail rail_electric rail_fast ship" speed="13.89" length="11.32" shape="493.23,600.67 503.15,595.43"/>
        <lane id=":1852234184_2_2" index="2" disallow="tram rail_urban rail rail_electric rail_fast ship" speed="13.89" length="11.32" shape="491.71,597.86 501.72,592.57"/>
        <lane id=":1852234184_2_3" index="3" disallow="tram rail_urban rail rail_electric rail_fast ship" speed="13.89" length="11.32" shape="490.18,595.04 500.29,589.71"/>
        <lane id=":1852234184_2_4" index="4" disallow="tram rail_urban rail rail_electric rail_fast ship" speed="13.89" length="11.32" shape="488.66,592.23 498.86,586.85"/>
    </edge>
    <edge id=":1966874451_0" function="internal">
        <lane id=":1966874451_0_0" index="0" disallow="tram rail_urban rail rail_electric rail_fast ship" speed="15.28" length="21.69" shape="385.21,444.34 389.81,448.79 393.08,451.86 395.97,455.09 399.38,460.06"/>
        <lane id=":1966874451_0_1" index="1" disallow="tram rail_urban rail rail_electric rail_fast ship" speed="15.28" length="21.69" shape="385.21,444.34 390.34,448.64 394.54,451.11 398.29,453.70 402.09,458.37"/>
    </edge>
    <edge id=":1966874451_2" function="internal">
        <lane id=":1966874451_2_0" index="0" disallow="tram rail_urban rail rail_electric rail_fast ship" speed="16.67" length="12.75" shape="387.50,442.10 389.25,445.30 389.36,448.31 389.68,451.03 392.07,453.37"/>
        <lane id=":1966874451_2_1" index="1" disallow="tram rail_urban rail rail_electric rail_fast ship" speed="16.67" length="11.93" shape="389.78,439.86 391.34,442.86 391.28,445.73 391.41,448.33 393.56,450.54"/>
        <lane id=":1966874451_2_2" index="2" disallow="tram rail_urban rail rail_electric rail_fast ship" speed="16.67" length="9.68" shape="389.78,439.86 391.41,442.20 392.08,444.22 392.92,446.03 395.04,447.70"/>
        <lane id=":1966874451_2_3" index="3" disallow="tram rail_urban rail rail_electric rail_fast ship" speed="16.67" length="8.46" shape="389.78,439.86 391.55,441.63 392.86,442.76 394.32,443.69 396.53,444.87"/>
    </edge>
    <edge id=":230928317_0" function="internal">
        <lane id=":230928317_0_0" index="0" disallow="tram rail_urban rail rail_electric rail_fast ship" speed="15.28" length="15.78" shape="606.03,532.11 602.75,529.00 600.76,526.62 599.00,524.02 596.42,520.28"/>
        <lane id=":230928317_0_1" index="1" disallow="tram rail_urban rail rail_electric rail_fast ship" speed="15.28" length="15.78" shape="603.65,534.25 600.56,530.81 598.50,528.40 596.56,525.89 593.83,522.16"/>
        <lane id=":230928317_0_2" index="2" disallow="tram rail_urban rail rail_electric rail_fast ship" speed="15.28" length="15.78" shape="601.27,536.39 598.12,532.87 596.01,530.41 594.03,527.85 591.24,524.04"/>
        <lane id=":230928317_0_3" index="3" disallow="tram rail_urban rail rail_electric rail_fast ship" speed="15.28" length="15.78" shape="598.90,538.54 595.67,534.94 593.52,532.43 591.50,529.81 588.65,525.92"/>
    </edge>
    <edge id=":230928317_4" function="internal">
        <lane id=":230928317_4_0" index="0" allow="private emergency authority army vip passenger hov taxi bus coach delivery truck trailer motorcycle evehicle custom1 custom2" speed="13.89" length="21.55" shape="588.92,536.29 607.00,524.53"/>
        <lane id=":230928317_4_1" index="1" allow="private emergency authority army vip passenger hov taxi bus coach delivery truck trailer motorcycle evehicle custom1 custom2" speed="13.89" length="21.55" shape="587.19,533.60 605.24,521.86"/>
    </edge>
    <edge id=":230928542_0" function="internal">
        <lane id=":230928542_0_0" index="0" allow="bus bicycle" speed="3.65" length="0.16" shape="590.02,567.02 589.88,567.10"/>
    </edge>
    <edge id=":230928542_4" function="internal">
        <lane id=":230928542_4_0" index="0" allow="bus bicycle" speed="3.65" length="4.52" shape="589.88,567.10 588.77,567.74 588.31,568.50 588.65,569.33 589.79,570.22"/>
    </edge>
    <edge id=":230928542_1" function="internal">
        <lane id=":230928542_1_0" index="0" disallow="tram rail_urban rail rail_electric rail_fast ship" speed="13.89" length="5.52" shape="587.01,571.71 589.33,576.60"/>
        <lane id=":230928542_1_1" index="1" disallow="tram rail_urban rail rail_electric rail_fast ship" speed="13.89" length="5.52" shape="587.02,568.51 589.56,573.41"/>
        <lane id=":230928542_1_2" index="2" disallow="tram rail_urban rail rail_electric rail_fast ship" speed="13.89" length="5.52" shape="587.04,565.31 589.79,570.22"/>
    </edge>
    <edge id=":236310354_0" function="internal">
        <lane id=":236310354_0_0" index="0" allow="private emergency authority army vip passenger hov taxi bus coach delivery truck trailer motorcycle evehicle custom1 custom2" speed="15.28" length="16.61" shape="495.52,437.85 493.23,435.07 490.96,432.26 488.88,428.72 487.19,423.71"/>
    </edge>
    <edge id=":236310354_1" function="internal">
        <lane id=":236310354_1_0" index="0" disallow="tram rail_urban rail rail_electric rail_fast ship" speed="16.67" length="16.69" shape="491.28,439.85 487.19,423.71"/>
        <lane id=":236310354_1_1" index="1" disallow="tram rail_urban rail rail_electric rail_fast ship" speed="16.67" length="16.69" shape="488.18,440.63 484.07,424.45"/>
        <lane id=":236310354_1_2" index="2" disallow="tram rail_urban rail rail_electric rail_fast ship" speed="16.67" length="16.69" shape="485.07,441.41 480.96,425.20"/>
    </edge>
    <edge id=":247747957_0" function="internal">
        <lane id=":247747957_0_0" index="0" allow="private emergency authority army vip passenger hov taxi bus coach delivery truck trailer motorcycle evehicle custom1 custom2" speed="13.89" length="8.16" shape="412.84,635.55 415.09,634.88 416.74,634.79 418.39,634.73 420.67,634.13"/>
        <lane id=":247747957_0_1" index="1" allow="private emergency authority army vip passenger hov taxi bus coach delivery truck trailer motorcycle evehicle custom1 custom2" speed="13.89" length="8.16" shape="411.60,632.61 413.87,631.92 415.54,631.82 417.22,631.75 419.53,631.14"/>
        <lane id=":247747957_0_2" index="2" allow="private emergency authority army vip passenger hov taxi bus coach delivery truck trailer motorcycle evehicle custom1 custom2" speed="13.89" length="8.16" shape="410.35,629.66 412.66,628.96 414.35,628.85 416.05,628.78 418.39,628.15"/>
        <lane id=":247747957_0_3" index="3" allow="private emergency authority army vip passenger hov taxi bus coach delivery truck trailer motorcycle evehicle custom1 custom2" speed="13.89" length="8.16" shape="410.35,629.66 412.48,628.49 413.78,627.36 415.08,626.26 417.25,625.16"/>
    </edge>
    <edge id=":250326971_0" function="internal">
        <lane id=":250326971_0_0" index="0" allow="private emergency authority army vip passenger hov taxi bus coach delivery truck trailer motorcycle evehicle custom1 custom2" speed="22.22" length="3.15" shape="268.23,656.71 271.29,655.83"/>
        <lane id=":250326971_0_1" index="1" allow="private emergency authority army vip passenger hov taxi bus coach delivery truck trailer motorcycle evehicle custom1 custom2" speed="22.22" length="3.15" shape="267.36,653.63 270.39,652.76"/>
        <lane id=":250326971_0_2" index="2" allow="private emergency authority army vip passenger hov taxi bus coach delivery truck trailer motorcycle evehicle custom1 custom2" speed="22.22" length="3.15" shape="266.49,650.55 269.49,649.69"/>
    </edge>
    <edge id=":250326971_3" function="internal">
        <lane id=":250326971_3_0" index="0" allow="private emergency authority army vip passenger hov taxi bus coach delivery truck trailer motorcycle evehicle custom1 custom2" speed="22.22" length="3.22" shape="269.96,662.82 273.09,661.97"/>
        <lane id=":250326971_3_1" index="1" allow="private emergency authority army vip passenger hov taxi bus coach delivery truck trailer motorcycle evehicle custom1 custom2" speed="22.22" length="3.22" shape="269.09,659.74 272.19,658.90"/>
    </edge>
    <edge id=":378663436_0" function="internal">
        <lane id=":378663436_0_0" index="0" allow="private emergency authority army vip passenger hov taxi bus coach delivery truck trailer motorcycle evehicle custom1 custom2" speed="13.89" length="10.52" shape="728.88,415.83 730.90,413.61 732.53,412.20 734.21,410.77 736.40,408.50"/>
    </edge>
    <edge id=":378663436_1" function="internal">
        <lane id=":378663436_1_0" index="0" allow="private emergency authority army vip passenger hov taxi bus coach delivery truck trailer motorcycle evehicle custom1 custom2" speed="13.89" length="10.39" shape="726.40,413.47 728.68,411.51 730.31,410.15 731.89,408.68 733.99,406.40"/>
    </edge>
    <edge id=":391208358_0" function="internal">
        <lane id=":391208358_0_0" index="0" allow="private emergency authority army vip passenger hov taxi bus coach delivery truck trailer motorcycle evehicle custom1 custom2" speed="13.89" length="11.05" shape="596.60,441.73 593.94,443.34 591.71,444.16 589.36,444.74 586.32,445.58"/>
    </edge>
    <edge id=":391208358_1" function="internal">
        <lane id=":391208358_1_0" index="0" allow="private emergency authority army vip passenger hov taxi bus coach delivery truck trailer motorcycle evehicle custom1 custom2" speed="13.89" length="11.04" shape="596.60,441.73 594.09,443.60 592.26,445.14 590.50,446.75 588.16,448.83"/>
    </edge>
    <edge id=":391209934_0" function="internal">
        <lane id=":391209934_0_0" index="0" allow="private emergency authority army vip passenger hov taxi bus coach delivery truck trailer motorcycle evehicle custom1 custom2" speed="13.89" length="8.21" shape="176.89,637.29 174.52,637.72 172.83,637.65 171.14,637.57 168.77,638.00"/>
        <lane id=":391209934_0_1" index="1" allow="private emergency authority army vip passenger hov taxi bus coach delivery truck trailer motorcycle evehicle custom1 custom2" speed="13.89" length="8.21" shape="177.79,640.36 175.42,640.79 173.72,640.72 172.03,640.64 169.66,641.07"/>
        <lane id=":391209934_0_2" index="2" allow="private emergency authority army vip passenger hov taxi bus coach delivery truck trailer motorcycle evehicle custom1 custom2" speed="13.89" length="8.21" shape="177.79,640.36 175.56,641.27 174.17,642.25 172.79,643.23 170.55,644.14"/>
    </edge>
    <edge id=":391210643_0" function="internal">
        <lane id=":391210643_0_0" index="0" allow="private emergency authority army vip passenger hov taxi bus coach delivery truck trailer motorcycle evehicle custom1 custom2" speed="13.89" length="12.72" shape="100.56,657.84 96.83,659.18 94.21,660.47 91.81,661.61 88.75,662.49"/>
    </edge>
    <edge id=":391210643_1" function="internal">
        <lane id=":391210643_1_0" index="0" allow="private emergency authority army vip passenger hov taxi bus coach delivery truck trailer motorcycle evehicle custom1 custom2" speed="13.89" length="12.45" shape="101.45,660.92 97.88,662.07 95.52,663.08 93.21,664.23 89.81,665.84"/>
        <lane id=":391210643_1_1" index="1" allow="private emergency authority army vip passenger hov taxi bus coach delivery truck trailer motorcycle evehicle custom1 custom2" speed="13.89" length="12.45" shape="102.35,663.99 98.90,665.11 96.62,666.08 94.40,667.21 91.11,668.77"/>
    </edge>
    <edge id=":391229437_0" function="internal">
        <lane id=":391229437_0_0" index="0" disallow="tram rail_urban rail rail_electric rail_fast ship" speed="12.42" length="11.65" shape="472.49,630.23 475.17,631.96 477.18,633.12 478.68,634.62 479.82,637.38"/>
        <lane id=":391229437_0_1" index="1" disallow="tram rail_urban rail rail_electric rail_fast ship" speed="13.54" length="11.65" shape="474.44,627.69 477.59,629.81 479.89,631.29 481.59,633.18 482.91,636.53"/>
    </edge>
    <edge id=":391229437_2" function="internal">
        <lane id=":391229437_2_0" index="0" disallow="tram rail_urban rail rail_electric rail_fast ship" speed="13.89" length="12.42" shape="477.66,625.41 479.05,628.78 480.38,630.94 481.67,633.12 482.91,636.53"/>
        <lane id=":391229437_2_1" index="1" disallow="tram rail_urban rail rail_electric rail_fast ship" speed="13.89" length="12.42" shape="480.71,624.43 482.11,627.84 483.45,630.03 484.74,632.23 485.99,635.69"/>
    </edge>
    <edge id=":391229721_0" function="internal">
        <lane id=":391229721_0_0" index="0" disallow="tram rail_urban rail rail_electric rail_fast ship" speed="13.89" length="15.43" shape="468.18,615.32 483.12,609.80"/>
        <lane id=":391229721_0_1" index="1" disallow="tram rail_urban rail rail_electric rail_fast ship" speed="13.89" length="15.43" shape="466.90,612.39 481.59,606.98"/>
        <lane id=":391229721_0_2" index="2" disallow="tram rail_urban rail rail_electric rail_fast ship" speed="13.89" length="15.43" shape="465.61,609.46 480.07,604.17"/>
        <lane id=":391229721_0_3" index="3" disallow="tram rail_urban rail rail_electric rail_fast ship" speed="13.89" length="15.43" shape="464.32,606.53 478.54,601.36"/>
        <lane id=":391229721_0_4" index="4" disallow="tram rail_urban rail rail_electric rail_fast ship" speed="13.89" length="15.43" shape="464.32,606.53 468.28,604.51 470.77,602.75 473.22,600.88 477.01,598.54"/>
    </edge>
    <edge id=":391229721_5" function="internal">
        <lane id=":391229721_5_0" index="0" disallow="tram rail_urban rail rail_electric rail_fast ship" speed="13.89" length="23.69" shape="466.68,597.52 469.40,603.40 471.44,608.25 473.33,613.17 475.59,619.24"/>
        <lane id=":391229721_5_1" index="1" disallow="tram rail_urban rail rail_electric rail_fast ship" speed="13.89" length="23.69" shape="469.56,596.13 472.31,602.07 474.40,607.05 476.34,612.09 478.63,618.23"/>
    </edge>
    <edge id=":391229721_7" function="internal">
        <lane id=":391229721_7_0" index="0" disallow="tram rail_urban rail rail_electric rail_fast ship" speed="8.01" length="14.73" shape="469.56,596.13 472.18,600.72 474.81,603.59 477.43,604.74 480.07,604.17"/>
        <lane id=":391229721_7_1" index="1" disallow="tram rail_urban rail rail_electric rail_fast ship" speed="7.23" length="11.82" shape="469.56,596.13 471.57,599.46 473.73,601.44 476.06,602.07 478.54,601.36"/>
        <lane id=":391229721_7_2" index="2" disallow="tram rail_urban rail rail_electric rail_fast ship" speed="6.40" length="9.04" shape="469.56,596.13 470.95,598.20 472.65,599.29 474.68,599.41 477.01,598.54"/>
    </edge>
    <edge id=":391238320_0" function="internal">
        <lane id=":391238320_0_0" index="0" disallow="tram rail_urban rail rail_electric rail_fast ship" speed="13.89" length="46.40" shape="522.15,600.55 523.59,591.67 529.65,584.38 540.33,578.69 555.61,574.59"/>
    </edge>
    <edge id=":391238320_1" function="internal">
        <lane id=":391238320_1_0" index="0" disallow="tram rail_urban rail rail_electric rail_fast ship" speed="13.89" length="48.56" shape="522.15,600.55 523.66,594.71 529.07,586.83 538.37,576.92 551.55,564.98"/>
        <lane id=":391238320_1_1" index="1" disallow="tram rail_urban rail rail_electric rail_fast ship" speed="13.89" length="48.56" shape="518.80,599.00 520.40,593.17 526.04,585.16 535.74,574.95 549.47,562.55"/>
        <lane id=":391238320_1_2" index="2" disallow="tram rail_urban rail rail_electric rail_fast ship" speed="13.89" length="48.56" shape="515.65,597.54 518.97,587.22 526.26,578.10 536.19,569.35 547.39,560.12"/>
    </edge>
    <edge id=":391238320_4" function="internal">
        <lane id=":391238320_4_0" index="0" disallow="tram rail_urban rail rail_electric rail_fast ship" speed="13.89" length="44.07" shape="515.66,592.78 528.23,586.43 537.57,581.25 545.95,577.30 555.61,574.59"/>