<?xml version="1.0" encoding="UTF-8"?>

<!-- generated on 2023-07-11 16:53:31 by Eclipse SUMO netconvert Version 1.17.0
<configuration xmlns:xsi="http://www.w3.org/2001/XMLSchema-instance" xsi:noNamespaceSchemaLocation="http://sumo.dlr.de/xsd/netconvertConfiguration.xsd">

    <input>
        <sumo-net-file value="osm.net.xml.gz"/>
    </input>

    <output>
        <output-file value="osm.net.xml"/>
        <output.street-names value="true"/>
    </output>

    <processing>
        <geometry.min-radius.fix.railways value="false"/>
        <geometry.max-grade.fix value="false"/>
        <offset.disable-normalization value="true"/>
        <lefthand value="1"/>
    </processing>

    <junctions>
        <no-turnarounds value="true"/>
        <junctions.corner-detail value="5"/>
        <junctions.limit-turn-speed value="5.50"/>
        <rectangular-lane-cut value="0"/>
    </junctions>

    <pedestrian>
        <walkingareas value="0"/>
    </pedestrian>

</configuration>
-->

<net version="1.16" junctionCornerDetail="5" lefthand="true" limitTurnSpeed="5.50" xmlns:xsi="http://www.w3.org/2001/XMLSchema-instance" xsi:noNamespaceSchemaLocation="http://sumo.dlr.de/xsd/net_file.xsd">

    <location netOffset="-359135.70,-148618.03" convBoundary="0.00,0.00,691.46,548.64" origBoundary="103.733843,1.344262,103.740059,1.349224" projParameter="+proj=utm +zone=48 +ellps=WGS84 +datum=WGS84 +units=m +no_defs"/>

    <type id="highway.bridleway" priority="1" numLanes="1" speed="2.78" allow="pedestrian" oneway="1" width="2.00"/>
    <type id="highway.bus_guideway" priority="1" numLanes="1" speed="27.78" allow="bus" oneway="1"/>
    <type id="highway.cycleway" priority="1" numLanes="1" speed="5.56" allow="bicycle" oneway="0" width="1.00"/>
    <type id="highway.footway" priority="1" numLanes="1" speed="2.78" allow="pedestrian" oneway="1" width="2.00"/>
    <type id="highway.ford" priority="1" numLanes="1" speed="2.78" allow="army" oneway="0"/>
    <type id="highway.living_street" priority="2" numLanes="1" speed="2.78" disallow="tram rail_urban rail rail_electric rail_fast ship" oneway="0"/>
    <type id="highway.motorway" priority="14" numLanes="2" speed="39.44" allow="private emergency authority army vip passenger hov taxi bus coach delivery truck trailer motorcycle evehicle custom1 custom2" oneway="1"/>
    <type id="highway.motorway_link" priority="9" numLanes="1" speed="22.22" allow="private emergency authority army vip passenger hov taxi bus coach delivery truck trailer motorcycle evehicle custom1 custom2" oneway="1"/>
    <type id="highway.path" priority="1" numLanes="1" speed="5.56" allow="pedestrian bicycle" oneway="0" width="2.00"/>
    <type id="highway.pedestrian" priority="1" numLanes="1" speed="2.78" allow="pedestrian" oneway="1" width="2.00"/>
    <type id="highway.primary" priority="12" numLanes="2" speed="27.78" disallow="tram rail_urban rail rail_electric rail_fast ship" oneway="0"/>
    <type id="highway.primary_link" priority="7" numLanes="1" speed="22.22" disallow="tram rail_urban rail rail_electric rail_fast ship" oneway="0"/>
    <type id="highway.raceway" priority="15" numLanes="2" speed="83.33" allow="vip" oneway="0"/>
    <type id="highway.residential" priority="3" numLanes="1" speed="13.89" disallow="tram rail_urban rail rail_electric rail_fast ship" oneway="0"/>
    <type id="highway.secondary" priority="11" numLanes="1" speed="27.78" disallow="tram rail_urban rail rail_electric rail_fast ship" oneway="0"/>
    <type id="highway.secondary_link" priority="6" numLanes="1" speed="22.22" disallow="tram rail_urban rail rail_electric rail_fast ship" oneway="0"/>
    <type id="highway.service" priority="1" numLanes="1" speed="5.56" allow="pedestrian delivery bicycle" oneway="0"/>
    <type id="highway.stairs" priority="1" numLanes="1" speed="1.39" allow="pedestrian" oneway="1" width="2.00"/>
    <type id="highway.step" priority="1" numLanes="1" speed="1.39" allow="pedestrian" oneway="1" width="2.00"/>
    <type id="highway.steps" priority="1" numLanes="1" speed="1.39" allow="pedestrian" oneway="1" width="2.00"/>
    <type id="highway.tertiary" priority="10" numLanes="1" speed="22.22" disallow="tram rail_urban rail rail_electric rail_fast ship" oneway="0"/>
    <type id="highway.tertiary_link" priority="5" numLanes="1" speed="22.22" disallow="tram rail_urban rail rail_electric rail_fast ship" oneway="0"/>
    <type id="highway.track" priority="1" numLanes="1" speed="5.56" allow="pedestrian motorcycle moped bicycle" oneway="0"/>
    <type id="highway.trunk" priority="13" numLanes="2" speed="27.78" disallow="pedestrian bicycle tram rail_urban rail rail_electric rail_fast ship" oneway="0"/>
    <type id="highway.trunk_link" priority="8" numLanes="1" speed="22.22" disallow="pedestrian bicycle tram rail_urban rail rail_electric rail_fast ship" oneway="0"/>
    <type id="highway.unclassified" priority="4" numLanes="1" speed="13.89" disallow="tram rail_urban rail rail_electric rail_fast ship" oneway="0"/>
    <type id="highway.unsurfaced" priority="1" numLanes="1" speed="8.33" disallow="tram rail_urban rail rail_electric rail_fast ship" oneway="0"/>
    <type id="railway.highspeed" priority="21" numLanes="1" speed="69.44" allow="rail_fast" oneway="1"/>
    <type id="railway.light_rail" priority="19" numLanes="1" speed="27.78" allow="rail_urban" oneway="1"/>
    <type id="railway.preserved" priority="16" numLanes="1" speed="27.78" allow="rail" oneway="1"/>
    <type id="railway.rail" priority="20" numLanes="1" speed="44.44" allow="rail" oneway="1"/>
    <type id="railway.subway" priority="18" numLanes="1" speed="27.78" allow="rail_urban" oneway="1"/>
    <type id="railway.tram" priority="17" numLanes="1" speed="13.89" allow="tram" oneway="1"/>

    <edge id=":1492340329_0" function="internal">
        <lane id=":1492340329_0_0" index="0" allow="private emergency authority army vip passenger hov taxi bus coach delivery truck trailer motorcycle evehicle custom1 custom2" speed="13.89" length="3.99" shape="328.67,269.19 329.50,268.36 330.12,267.84 330.81,267.40 331.83,266.80"/>
    </edge>
    <edge id=":1492340329_1" function="internal">
        <lane id=":1492340329_1_0" index="0" allow="private emergency authority army vip passenger hov taxi bus coach delivery truck trailer motorcycle evehicle custom1 custom2" speed="13.89" length="6.95" shape="326.36,266.98 327.85,265.47 328.87,264.44 329.84,263.37 331.16,261.72"/>
        <lane id=":1492340329_1_1" index="1" allow="private emergency authority army vip passenger hov taxi bus coach delivery truck trailer motorcycle evehicle custom1 custom2" speed="13.89" length="6.95" shape="324.06,264.76 325.47,263.32 326.44,262.35 327.37,261.33 328.63,259.76"/>
    </edge>
    <edge id=":1492340331_0" function="internal">
        <lane id=":1492340331_0_0" index="0" allow="private emergency authority army vip passenger hov taxi bus coach delivery truck trailer motorcycle evehicle custom1 custom2" speed="13.89" length="7.96" shape="287.49,309.28 289.43,307.88 290.97,307.19 292.47,306.47 294.28,304.94"/>
        <lane id=":1492340331_0_1" index="1" allow="private emergency authority army vip passenger hov taxi bus coach delivery truck trailer motorcycle evehicle custom1 custom2" speed="13.89" length="7.96" shape="287.49,309.28 289.05,307.54 289.81,306.08 290.53,304.58 291.98,302.73"/>
        <lane id=":1492340331_0_2" index="2" allow="private emergency authority army vip passenger hov taxi bus coach delivery truck trailer motorcycle evehicle custom1 custom2" speed="13.89" length="7.96" shape="285.36,306.90 286.87,305.20 287.59,303.78 288.27,302.32 289.67,300.51"/>
    </edge>
    <edge id=":1845246503_0" function="internal">
        <lane id=":1845246503_0_0" index="0" disallow="tram rail_urban rail rail_electric rail_fast ship" speed="19.44" length="8.21" shape="477.04,326.15 476.28,323.87 476.11,322.18 475.95,320.50 475.18,318.21"/>
        <lane id=":1845246503_0_1" index="1" disallow="tram rail_urban rail rail_electric rail_fast ship" speed="19.44" length="8.21" shape="474.13,327.48 473.36,325.20 473.20,323.51 473.03,321.82 472.27,319.54"/>
        <lane id=":1845246503_0_2" index="2" disallow="tram rail_urban rail rail_electric rail_fast ship" speed="19.44" length="8.21" shape="471.22,328.81 470.45,326.52 470.29,324.84 470.12,323.15 469.36,320.87"/>
        <lane id=":1845246503_0_3" index="3" disallow="tram rail_urban rail rail_electric rail_fast ship" speed="19.44" length="8.21" shape="468.31,330.14 467.54,327.85 467.38,326.17 467.21,324.48 466.44,322.20"/>
        <lane id=":1845246503_0_4" index="4" disallow="tram rail_urban rail rail_electric rail_fast ship" speed="19.44" length="8.21" shape="465.40,331.46 464.63,329.18 464.46,327.49 464.30,325.81 463.53,323.52"/>
        <lane id=":1845246503_0_5" index="5" disallow="tram rail_urban rail rail_electric rail_fast ship" speed="19.44" length="8.21" shape="462.48,332.79 461.72,330.51 461.55,328.82 461.39,327.14 460.62,324.85"/>
    </edge>
    <edge id=":568256218_0" function="internal">
        <lane id=":568256218_0_0" index="0" allow="private emergency authority army vip passenger hov taxi bus coach delivery truck trailer motorcycle evehicle custom1 custom2" speed="13.89" length="21.84" shape="455.67,192.37 460.54,188.75 464.05,186.19 467.88,184.06 473.74,181.78"/>
        <lane id=":568256218_0_1" index="1" allow="private emergency authority army vip passenger hov taxi bus coach delivery truck trailer motorcycle evehicle custom1 custom2" speed="13.89" length="21.84" shape="454.02,189.61 458.94,185.97 462.59,183.33 466.62,181.13 472.69,178.76"/>
        <lane id=":568256218_0_2" index="2" allow="private emergency authority army vip passenger hov taxi bus coach delivery truck trailer motorcycle evehicle custom1 custom2" speed="13.89" length="21.84" shape="454.02,189.61 458.72,185.51 461.92,181.87 465.57,178.63 471.65,175.73"/>
    </edge>
    <edge id=":568256218_3" function="internal">
        <lane id=":568256218_3_0" index="0" allow="private emergency authority army vip passenger hov taxi bus coach delivery truck trailer motorcycle evehicle custom1 custom2" speed="13.89" length="21.44" shape="452.13,185.30 458.34,183.72 462.52,182.41 466.65,180.91 472.69,178.76"/>
        <lane id=":568256218_3_1" index="1" allow="private emergency authority army vip passenger hov taxi bus coach delivery truck trailer motorcycle evehicle custom1 custom2" speed="13.89" length="21.44" shape="451.25,182.22 457.40,180.65 461.56,179.36 465.66,177.87 471.65,175.73"/>
        <lane id=":568256218_3_2" index="2" allow="private emergency authority army vip passenger hov taxi bus coach delivery truck trailer motorcycle evehicle custom1 custom2" speed="13.89" length="21.44" shape="450.37,179.14 456.52,177.82 460.64,176.51 464.67,174.91 470.60,172.71"/>
    </edge>
    <edge id=":568256243_0" function="internal">
        <lane id=":568256243_0_0" index="0" allow="private emergency authority army vip passenger hov taxi bus coach delivery truck trailer motorcycle evehicle custom1 custom2" speed="13.30" length="14.56" shape="436.17,233.51 434.45,229.68 434.02,226.76 434.52,223.71 435.57,219.52"/>
        <lane id=":568256243_0_1" index="1" allow="private emergency authority army vip passenger hov taxi bus coach delivery truck trailer motorcycle evehicle custom1 custom2" speed="13.98" length="16.12" shape="433.36,235.03 431.38,230.80 430.77,227.57 431.18,224.20 432.27,219.56"/>
    </edge>
    <edge id=":568256243_2" function="internal">
        <lane id=":568256243_2_0" index="0" disallow="tram rail_urban rail rail_electric rail_fast ship" speed="19.44" length="15.53" shape="433.36,235.03 426.48,220.83"/>
        <lane id=":568256243_2_1" index="1" disallow="tram rail_urban rail rail_electric rail_fast ship" speed="19.44" length="15.53" shape="430.54,236.55 423.71,222.42"/>
        <lane id=":568256243_2_2" index="2" disallow="tram rail_urban rail rail_electric rail_fast ship" speed="19.44" length="15.53" shape="427.73,238.08 420.93,224.02"/>
        <lane id=":568256243_2_3" index="3" disallow="tram rail_urban rail rail_electric rail_fast ship" speed="19.44" length="15.53" shape="424.92,239.60 418.16,225.61"/>
        <lane id=":568256243_2_4" index="4" disallow="tram rail_urban rail rail_electric rail_fast ship" speed="19.44" length="15.53" shape="422.10,241.12 415.39,227.21"/>
        <lane id=":568256243_2_5" index="5" disallow="tram rail_urban rail rail_electric rail_fast ship" speed="19.44" length="15.53" shape="419.29,242.64 412.61,228.80"/>
        <lane id=":568256243_2_6" index="6" disallow="tram rail_urban rail rail_electric rail_fast ship" speed="19.44" length="15.53" shape="416.47,244.17 409.84,230.40"/>
    </edge>
    <edge id=":568256248_0" function="internal">
        <lane id=":568256248_0_0" index="0" allow="private emergency authority army vip passenger hov taxi bus coach delivery truck trailer motorcycle evehicle custom1 custom2" speed="16.66" length="18.17" shape="332.47,133.37 334.85,138.85 336.78,143.12 338.13,146.75 338.77,150.33"/>
    </edge>
    <edge id=":568256248_1" function="internal">
        <lane id=":568256248_1_0" index="0" disallow="tram rail_urban rail rail_electric rail_fast ship" speed="19.44" length="13.58" shape="335.43,132.16 337.11,136.06 338.42,138.66 339.84,141.20 341.87,144.95"/>
        <lane id=":568256248_1_1" index="1" disallow="tram rail_urban rail rail_electric rail_fast ship" speed="19.44" length="13.58" shape="338.40,130.95 340.04,134.77 341.33,137.31 342.72,139.80 344.70,143.46"/>
        <lane id=":568256248_1_2" index="2" disallow="tram rail_urban rail rail_electric rail_fast ship" speed="19.44" length="13.58" shape="341.36,129.74 342.97,133.47 344.23,135.96 345.60,138.40 347.54,141.98"/>
        <lane id=":568256248_1_3" index="3" disallow="tram rail_urban rail rail_electric rail_fast ship" speed="19.44" length="13.58" shape="344.32,128.53 345.90,132.18 347.14,134.61 348.48,137.00 350.38,140.50"/>
        <lane id=":568256248_1_4" index="4" disallow="tram rail_urban rail rail_electric rail_fast ship" speed="19.44" length="13.58" shape="347.28,127.32 348.83,130.89 350.04,133.26 351.35,135.59 353.21,139.02"/>
        <lane id=":568256248_1_5" index="5" disallow="tram rail_urban rail rail_electric rail_fast ship" speed="19.44" length="13.58" shape="350.24,126.11 351.76,129.60 352.94,131.92 354.23,134.19 356.05,137.54"/>
    </edge>
    <edge id=":568256250_0" function="internal">
        <lane id=":568256250_0_0" index="0" allow="private emergency authority army vip passenger hov taxi bus coach delivery truck trailer motorcycle evehicle custom1 custom2" speed="13.89" length="34.88" shape="331.27,186.94 327.55,190.73 320.79,195.41 312.08,200.73 302.52,206.44"/>
    </edge>
    <edge id=":568256250_1" function="internal">
        <lane id=":568256250_1_0" index="0" allow="private emergency authority army vip passenger hov taxi bus coach delivery truck trailer motorcycle evehicle custom1 custom2" speed="13.89" length="29.17" shape="330.49,196.47 321.86,198.57 315.89,200.02 310.23,202.18 302.52,206.44"/>
        <lane id=":568256250_1_1" index="1" allow="private emergency authority army vip passenger hov taxi bus coach delivery truck trailer motorcycle evehicle custom1 custom2" speed="13.89" length="29.17" shape="331.49,199.51 323.06,201.56 317.23,202.94 311.71,205.03 304.18,209.18"/>
        <lane id=":568256250_1_2" index="2" allow="private emergency authority army vip passenger hov taxi bus coach delivery truck trailer motorcycle evehicle custom1 custom2" speed="13.89" length="29.17" shape="332.49,202.56 324.27,204.54 318.58,205.87 313.18,207.88 305.83,211.91"/>
    </edge>
    <edge id=":568256253_0" function="internal">
        <lane id=":568256253_0_0" index="0" allow="private emergency authority army vip passenger hov taxi bus coach delivery truck trailer motorcycle evehicle custom1 custom2" speed="13.89" length="7.98" shape="483.39,102.92 481.00,103.34 479.29,103.28 477.59,103.28 475.24,103.84"/>
        <lane id=":568256253_0_1" index="1" allow="private emergency authority army vip passenger hov taxi bus coach delivery truck trailer motorcycle evehicle custom1 custom2" speed="13.89" length="7.98" shape="484.27,106.00 481.93,106.40 480.26,106.33 478.61,106.31 476.31,106.86"/>
        <lane id=":568256253_0_2" index="2" allow="private emergency authority army vip passenger hov taxi bus coach delivery truck trailer motorcycle evehicle custom1 custom2" speed="13.89" length="7.98" shape="485.14,109.07 482.86,109.46 481.23,109.38 479.62,109.35 477.39,109.87"/>
        <lane id=":568256253_0_3" index="3" allow="private emergency authority army vip passenger hov taxi bus coach delivery truck trailer motorcycle evehicle custom1 custom2" speed="13.89" length="7.98" shape="485.14,109.07 483.04,109.93 481.77,110.89 480.51,111.90 478.46,112.89"/>
    </edge>
    <edge id=":568256254_0" function="internal">
        <lane id=":568256254_0_0" index="0" allow="private emergency authority army vip passenger hov taxi bus coach delivery truck trailer motorcycle evehicle custom1 custom2" speed="13.89" length="35.40" shape="458.65,109.74 426.46,124.44"/>
        <lane id=":568256254_0_1" index="1" allow="private emergency authority army vip passenger hov taxi bus coach delivery truck trailer motorcycle evehicle custom1 custom2" speed="13.89" length="35.40" shape="459.73,112.76 427.52,127.46"/>
    </edge>
    <edge id=":568256254_2" function="internal">
        <lane id=":568256254_2_0" index="0" allow="private emergency authority army vip passenger hov taxi bus coach delivery truck trailer motorcycle evehicle custom1 custom2" speed="13.89" length="35.71" shape="459.73,112.76 449.69,116.99 442.97,121.12 437.04,125.67 429.34,131.16"/>
        <lane id=":568256254_2_1" index="1" allow="private emergency authority army vip passenger hov taxi bus coach delivery truck trailer motorcycle evehicle custom1 custom2" speed="13.89" length="34.96" shape="460.80,115.77 451.01,119.90 444.51,123.92 438.73,128.39 431.09,133.84"/>
        <lane id=":568256254_2_2" index="2" allow="private emergency authority army vip passenger hov taxi bus coach delivery truck trailer motorcycle evehicle custom1 custom2" speed="13.89" length="34.21" shape="461.87,118.79 452.34,122.81 446.06,126.72 440.42,131.10 432.83,136.53"/>
    </edge>
    <edge id=":568256256_0" function="internal">
        <lane id=":568256256_0_0" index="0" allow="private emergency authority army vip passenger hov taxi bus coach delivery truck trailer motorcycle evehicle custom1 custom2" speed="16.66" length="43.15" shape="373.56,122.07 367.83,116.56 361.76,109.64 355.37,100.64 348.71,88.87"/>
        <lane id=":568256256_0_1" index="1" allow="private emergency authority army vip passenger hov taxi bus coach delivery truck trailer motorcycle evehicle custom1 custom2" speed="16.66" length="43.15" shape="371.87,124.87 365.95,119.15 359.48,111.77 352.70,102.30 345.86,90.32"/>
        <lane id=":568256256_0_2" index="2" allow="private emergency authority army vip passenger hov taxi bus coach delivery truck trailer motorcycle evehicle custom1 custom2" speed="16.66" length="43.15" shape="371.87,124.87 365.50,119.38 358.05,112.49 350.29,103.52 343.00,91.77"/>
    </edge>
    <edge id=":568256256_3" function="internal">
        <lane id=":568256256_3_0" index="0" disallow="tram rail_urban rail rail_electric rail_fast ship" speed="19.44" length="43.66" shape="369.24,127.30 348.71,88.87"/>
        <lane id=":568256256_3_1" index="1" disallow="tram rail_urban rail rail_electric rail_fast ship" speed="19.44" length="43.66" shape="366.41,128.81 345.86,90.32"/>
        <lane id=":568256256_3_2" index="2" disallow="tram rail_urban rail rail_electric rail_fast ship" speed="19.44" length="43.66" shape="363.59,130.31 343.00,91.77"/>
        <lane id=":568256256_3_3" index="3" disallow="tram rail_urban rail rail_electric rail_fast ship" speed="19.44" length="43.66" shape="360.76,131.81 340.15,93.22"/>
    </edge>
    <edge id=":568256260_0" function="internal">
        <lane id=":568256260_0_0" index="0" allow="private emergency authority army vip passenger hov taxi bus coach delivery truck trailer motorcycle evehicle custom1 custom2" speed="15.66" length="17.13" shape="406.82,271.35 410.05,272.91 413.00,274.87 415.84,277.76 418.72,282.10"/>
        <lane id=":568256260_0_1" index="1" allow="private emergency authority army vip passenger hov taxi bus coach delivery truck trailer motorcycle evehicle custom1 custom2" speed="16.33" length="17.13" shape="406.82,271.35 410.44,272.59 414.28,273.88 418.06,276.20 421.51,280.54"/>
    </edge>
    <edge id=":568256260_2" function="internal">
        <lane id=":568256260_2_0" index="0" disallow="tram rail_urban rail rail_electric rail_fast ship" speed="19.44" length="16.39" shape="411.13,267.46 418.72,282.10"/>
        <lane id=":568256260_2_1" index="1" disallow="tram rail_urban rail rail_electric rail_fast ship" speed="19.44" length="16.39" shape="413.95,265.95 421.51,280.54"/>
        <lane id=":568256260_2_2" index="2" disallow="tram rail_urban rail rail_electric rail_fast ship" speed="19.44" length="16.39" shape="416.77,264.44 424.30,278.97"/>
        <lane id=":568256260_2_3" index="3" disallow="tram rail_urban rail rail_electric rail_fast ship" speed="19.44" length="16.39" shape="419.59,262.93 427.09,277.40"/>
    </edge>
    <edge id=":5963935390_0" function="internal">
        <lane id=":5963935390_0_0" index="0" disallow="tram rail_urban rail rail_electric rail_fast ship" speed="19.44" length="7.97" shape="459.83,284.55 459.21,281.98 459.49,280.01 459.72,278.08 458.94,275.59"/>
        <lane id=":5963935390_0_1" index="1" disallow="tram rail_urban rail rail_electric rail_fast ship" speed="19.44" length="7.97" shape="459.83,284.55 456.13,277.11"/>
        <lane id=":5963935390_0_2" index="2" disallow="tram rail_urban rail rail_electric rail_fast ship" speed="19.44" length="7.97" shape="456.92,285.87 453.31,278.63"/>
        <lane id=":5963935390_0_3" index="3" disallow="tram rail_urban rail rail_electric rail_fast ship" speed="19.44" length="7.97" shape="454.00,287.20 450.50,280.15"/>
        <lane id=":5963935390_0_4" index="4" disallow="tram rail_urban rail rail_electric rail_fast ship" speed="19.44" length="7.97" shape="451.09,288.53 447.69,281.68"/>
        <lane id=":5963935390_0_5" index="5" disallow="tram rail_urban rail rail_electric rail_fast ship" speed="19.44" length="7.97" shape="448.18,289.85 444.87,283.20"/>
        <lane id=":5963935390_0_6" index="6" disallow="tram rail_urban rail rail_electric rail_fast ship" speed="19.44" length="7.97" shape="445.27,291.18 442.06,284.72"/>
        <lane id=":5963935390_0_7" index="7" disallow="tram rail_urban rail rail_electric rail_fast ship" speed="19.44" length="7.97" shape="445.27,291.18 443.91,289.39 442.34,288.67 440.74,287.96 439.24,286.25"/>
    </edge>
    <edge id=":5971306459_0" function="internal">
        <lane id=":5971306459_0_0" index="0" disallow="tram rail_urban rail rail_electric rail_fast ship" speed="19.44" length="8.21" shape="298.22,46.18 298.95,48.47 299.09,50.16 299.23,51.85 299.96,54.14"/>
        <lane id=":5971306459_0_1" index="1" disallow="tram rail_urban rail rail_electric rail_fast ship" speed="19.44" length="8.21" shape="301.15,44.89 301.88,47.19 302.02,48.87 302.16,50.56 302.89,52.86"/>
        <lane id=":5971306459_0_2" index="2" disallow="tram rail_urban rail rail_electric rail_fast ship" speed="19.44" length="8.21" shape="304.08,43.60 304.81,45.90 304.95,47.59 305.09,49.28 305.82,51.57"/>
        <lane id=":5971306459_0_3" index="3" disallow="tram rail_urban rail rail_electric rail_fast ship" speed="19.44" length="8.21" shape="307.01,42.32 307.74,44.61 307.88,46.30 308.02,47.99 308.76,50.29"/>
        <lane id=":5971306459_0_4" index="4" disallow="tram rail_urban rail rail_electric rail_fast ship" speed="19.44" length="8.21" shape="307.01,42.32 308.20,44.41 309.35,45.66 310.50,46.91 311.69,49.01"/>
    </edge>
    <edge id=":5982456279_0" function="internal">
        <lane id=":5982456279_0_0" index="0" allow="private emergency authority army vip passenger hov taxi bus coach delivery truck trailer motorcycle evehicle custom1 custom2" speed="13.89" length="8.81" shape="564.02,143.79 566.51,143.46 568.32,144.00 570.13,144.54 572.62,144.20"/>
        <lane id=":5982456279_0_1" index="1" allow="private emergency authority army vip passenger hov taxi bus coach delivery truck trailer motorcycle evehicle custom1 custom2" speed="13.89" length="8.81" shape="562.97,140.77 565.46,140.44 567.27,140.98 569.09,141.51 571.58,141.18"/>
    </edge>
    <edge id=":5987897296_0" function="internal">
        <lane id=":5987897296_0_0" index="0" disallow="tram rail_urban rail rail_electric rail_fast ship" speed="8.79" length="9.75" shape="424.99,293.24 425.98,295.56 426.33,297.89 426.05,300.23 425.13,302.57"/>
    </edge>
    <edge id=":5987897296_1" function="internal">
        <lane id=":5987897296_1_0" index="0" disallow="tram rail_urban rail rail_electric rail_fast ship" speed="19.44" length="10.67" shape="424.99,293.24 429.96,302.53"/>
        <lane id=":5987897296_1_1" index="1" disallow="tram rail_urban rail rail_electric rail_fast ship" speed="19.44" length="10.67" shape="427.77,291.67 432.79,301.04"/>
        <lane id=":5987897296_1_2" index="2" disallow="tram rail_urban rail rail_electric rail_fast ship" speed="19.44" length="10.67" shape="430.56,290.10 435.62,299.54"/>
        <lane id=":5987897296_1_3" index="3" disallow="tram rail_urban rail rail_electric rail_fast ship" speed="19.44" length="10.67" shape="433.35,288.53 438.45,298.05"/>
    </edge>
    <edge id=":6097353651_0" function="internal">
        <lane id=":6097353651_0_0" index="0" disallow="tram rail_urban rail rail_electric rail_fast ship" speed="19.44" length="7.97" shape="310.55,78.33 311.31,80.70 311.51,82.44 311.75,84.16 312.65,86.46"/>
        <lane id=":6097353651_0_1" index="1" disallow="tram rail_urban rail rail_electric rail_fast ship" speed="19.44" length="7.97" shape="313.48,77.04 314.22,79.36 314.40,81.06 314.62,82.74 315.50,84.99"/>
        <lane id=":6097353651_0_2" index="2" disallow="tram rail_urban rail rail_electric rail_fast ship" speed="19.44" length="7.97" shape="316.41,75.76 317.13,78.02 317.29,79.68 317.49,81.33 318.34,83.52"/>
        <lane id=":6097353651_0_3" index="3" disallow="tram rail_urban rail rail_electric rail_fast ship" speed="19.44" length="7.97" shape="319.34,74.48 320.04,76.68 320.17,78.31 320.36,79.91 321.18,82.06"/>
        <lane id=":6097353651_0_4" index="4" disallow="tram rail_urban rail rail_electric rail_fast ship" speed="19.44" length="7.97" shape="322.27,73.20 322.94,75.34 323.06,76.93 323.23,78.50 324.02,80.59"/>
        <lane id=":6097353651_0_5" index="5" disallow="tram rail_urban rail rail_electric rail_fast ship" speed="19.44" length="7.97" shape="322.27,73.20 323.38,75.10 324.49,76.19 325.63,77.27 326.87,79.12"/>
    </edge>
    <edge id=":6788417599_0" function="internal">
        <lane id=":6788417599_0_0" index="0" disallow="tram rail_urban rail rail_electric rail_fast ship" speed="19.44" length="7.77" shape="322.42,105.35 323.13,107.27 323.23,108.73 323.27,110.20 323.82,112.20"/>
        <lane id=":6788417599_0_1" index="1" disallow="tram rail_urban rail rail_electric rail_fast ship" speed="19.44" length="7.77" shape="322.42,105.35 323.60,107.10 324.71,108.12 325.76,109.16 326.78,110.99"/>
        <lane id=":6788417599_0_2" index="2" disallow="tram rail_urban rail rail_electric rail_fast ship" speed="19.44" length="7.77" shape="325.26,103.88 326.48,105.71 327.62,106.78 328.69,107.87 329.75,109.78"/>
        <lane id=":6788417599_0_3" index="3" disallow="tram rail_urban rail rail_electric rail_fast ship" speed="19.44" length="7.77" shape="328.10,102.41 329.36,104.31 330.52,105.43 331.62,106.58 332.71,108.57"/>
        <lane id=":6788417599_0_4" index="4" disallow="tram rail_urban rail rail_electric rail_fast ship" speed="19.44" length="7.77" shape="330.95,100.94 332.24,102.92 333.43,104.09 334.55,105.30 335.67,107.36"/>
        <lane id=":6788417599_0_5" index="5" disallow="tram rail_urban rail rail_electric rail_fast ship" speed="19.44" length="7.77" shape="333.79,99.47 335.12,101.52 336.34,102.75 337.48,104.01 338.63,106.15"/>
        <lane id=":6788417599_0_6" index="6" disallow="tram rail_urban rail rail_electric rail_fast ship" speed="19.44" length="7.77" shape="336.63,98.00 338.01,100.13 339.24,101.41 340.41,102.72 341.59,104.94"/>
    </edge>
    <edge id=":6990077350_0" function="internal">
        <lane id=":6990077350_0_0" index="0" allow="private emergency authority army vip passenger hov taxi bus coach delivery truck trailer motorcycle evehicle custom1 custom2" speed="13.89" length="7.74" shape="285.33,225.64 283.29,226.50 281.57,226.44 279.91,226.46 278.06,227.55"/>
    </edge>
    <edge id=":cluster_1492190463_568256216_6103692974_6103692975_0" function="internal">
        <lane id=":cluster_1492190463_568256216_6103692974_6103692975_0_0" index="0" allow="private emergency authority army vip passenger hov taxi bus coach delivery truck trailer motorcycle evehicle custom1 custom2" speed="13.89" length="51.24" shape="400.74,161.23 392.47,170.17 381.71,178.22 369.86,184.71 358.36,188.97"/>
        <lane id=":cluster_1492190463_568256216_6103692974_6103692975_0_1" index="1" allow="private emergency authority army vip passenger hov taxi bus coach delivery truck trailer motorcycle evehicle custom1 custom2" speed="13.89" length="51.24" shape="402.30,164.55 394.02,173.42 383.23,181.33 371.36,187.69 359.84,191.89"/>