<?xml version="1.0" encoding="UTF-8"?>

<!-- generated on 2023-07-17 15:53:47 by Eclipse SUMO netconvert Version 1.17.0
<configuration xmlns:xsi="http://www.w3.org/2001/XMLSchema-instance" xsi:noNamespaceSchemaLocation="http://sumo.dlr.de/xsd/netconvertConfiguration.xsd">

    <input>
        <sumo-net-file value="osm.net.xml.gz"/>
    </input>

    <output>
        <output-file value="osm.net.xml"/>
        <output.street-names value="true"/>
    </output>

    <processing>
        <geometry.min-radius.fix.railways value="false"/>
        <geometry.max-grade.fix value="false"/>
        <offset.disable-normalization value="true"/>
        <lefthand value="1"/>
    </processing>

    <junctions>
        <no-turnarounds value="true"/>
        <junctions.corner-detail value="5"/>
        <junctions.limit-turn-speed value="5.50"/>
        <rectangular-lane-cut value="0"/>
    </junctions>

    <pedestrian>
        <walkingareas value="0"/>
    </pedestrian>

</configuration>
-->

<net version="1.16" junctionCornerDetail="5" lefthand="true" limitTurnSpeed="5.50" xmlns:xsi="http://www.w3.org/2001/XMLSchema-instance" xsi:noNamespaceSchemaLocation="http://sumo.dlr.de/xsd/net_file.xsd">

    <location netOffset="-368978.68,-143824.45" convBoundary="0.00,0.00,365.32,335.22" origBoundary="103.822326,1.300947,103.825609,1.303979" projParameter="+proj=utm +zone=48 +ellps=WGS84 +datum=WGS84 +units=m +no_defs"/>

    <type id="highway.bridleway" priority="1" numLanes="1" speed="2.78" allow="pedestrian" oneway="1" width="2.00"/>
    <type id="highway.bus_guideway" priority="1" numLanes="1" speed="27.78" allow="bus" oneway="1"/>
    <type id="highway.cycleway" priority="1" numLanes="1" speed="5.56" allow="bicycle" oneway="0" width="1.00"/>
    <type id="highway.footway" priority="1" numLanes="1" speed="2.78" allow="pedestrian" oneway="1" width="2.00"/>
    <type id="highway.ford" priority="1" numLanes="1" speed="2.78" allow="army" oneway="0"/>
    <type id="highway.living_street" priority="2" numLanes="1" speed="2.78" disallow="tram rail_urban rail rail_electric rail_fast ship" oneway="0"/>
    <type id="highway.motorway" priority="14" numLanes="2" speed="39.44" allow="private emergency authority army vip passenger hov taxi bus coach delivery truck trailer motorcycle evehicle custom1 custom2" oneway="1"/>
    <type id="highway.motorway_link" priority="9" numLanes="1" speed="22.22" allow="private emergency authority army vip passenger hov taxi bus coach delivery truck trailer motorcycle evehicle custom1 custom2" oneway="1"/>
    <type id="highway.path" priority="1" numLanes="1" speed="5.56" allow="pedestrian bicycle" oneway="0" width="2.00"/>
    <type id="highway.pedestrian" priority="1" numLanes="1" speed="2.78" allow="pedestrian" oneway="1" width="2.00"/>
    <type id="highway.primary" priority="12" numLanes="2" speed="27.78" disallow="tram rail_urban rail rail_electric rail_fast ship" oneway="0"/>
    <type id="highway.primary_link" priority="7" numLanes="1" speed="22.22" disallow="tram rail_urban rail rail_electric rail_fast ship" oneway="0"/>
    <type id="highway.raceway" priority="15" numLanes="2" speed="83.33" allow="vip" oneway="0"/>
    <type id="highway.residential" priority="3" numLanes="1" speed="13.89" disallow="tram rail_urban rail rail_electric rail_fast ship" oneway="0"/>
    <type id="highway.secondary" priority="11" numLanes="1" speed="27.78" disallow="tram rail_urban rail rail_electric rail_fast ship" oneway="0"/>
    <type id="highway.secondary_link" priority="6" numLanes="1" speed="22.22" disallow="tram rail_urban rail rail_electric rail_fast ship" oneway="0"/>
    <type id="highway.service" priority="1" numLanes="1" speed="5.56" allow="pedestrian delivery bicycle" oneway="0"/>
    <type id="highway.stairs" priority="1" numLanes="1" speed="1.39" allow="pedestrian" oneway="1" width="2.00"/>
    <type id="highway.step" priority="1" numLanes="1" speed="1.39" allow="pedestrian" oneway="1" width="2.00"/>
    <type id="highway.steps" priority="1" numLanes="1" speed="1.39" allow="pedestrian" oneway="1" width="2.00"/>
    <type id="highway.tertiary" priority="10" numLanes="1" speed="22.22" disallow="tram rail_urban rail rail_electric rail_fast ship" oneway="0"/>
    <type id="highway.tertiary_link" priority="5" numLanes="1" speed="22.22" disallow="tram rail_urban rail rail_electric rail_fast ship" oneway="0"/>
    <type id="highway.track" priority="1" numLanes="1" speed="5.56" allow="pedestrian motorcycle moped bicycle" oneway="0"/>
    <type id="highway.trunk" priority="13" numLanes="2" speed="27.78" disallow="pedestrian bicycle tram rail_urban rail rail_electric rail_fast ship" oneway="0"/>
    <type id="highway.trunk_link" priority="8" numLanes="1" speed="22.22" disallow="pedestrian bicycle tram rail_urban rail rail_electric rail_fast ship" oneway="0"/>
    <type id="highway.unclassified" priority="4" numLanes="1" speed="13.89" disallow="tram rail_urban rail rail_electric rail_fast ship" oneway="0"/>
    <type id="highway.unsurfaced" priority="1" numLanes="1" speed="8.33" disallow="tram rail_urban rail rail_electric rail_fast ship" oneway="0"/>
    <type id="railway.highspeed" priority="21" numLanes="1" speed="69.44" allow="rail_fast" oneway="1"/>
    <type id="railway.light_rail" priority="19" numLanes="1" speed="27.78" allow="rail_urban" oneway="1"/>
    <type id="railway.preserved" priority="16" numLanes="1" speed="27.78" allow="rail" oneway="1"/>
    <type id="railway.rail" priority="20" numLanes="1" speed="44.44" allow="rail" oneway="1"/>
    <type id="railway.subway" priority="18" numLanes="1" speed="27.78" allow="rail_urban" oneway="1"/>
    <type id="railway.tram" priority="17" numLanes="1" speed="13.89" allow="tram" oneway="1"/>

    <edge id=":1889319444_0" function="internal">
        <lane id=":1889319444_0_0" index="0" disallow="tram rail_urban rail rail_electric rail_fast ship" speed="9.67" length="7.81" shape="135.71,169.35 133.81,167.98 132.43,166.99 131.49,165.74 130.91,163.61"/>
    </edge>
    <edge id=":1889319444_1" function="internal">
        <lane id=":1889319444_1_0" index="0" disallow="tram rail_urban rail rail_electric rail_fast ship" speed="13.89" length="7.91" shape="132.16,171.41 130.91,163.61"/>
        <lane id=":1889319444_1_1" index="1" disallow="tram rail_urban rail rail_electric rail_fast ship" speed="13.89" length="7.91" shape="129.00,171.92 127.75,164.09"/>
    </edge>
    <edge id=":1889319450_0" function="internal">
        <lane id=":1889319450_0_0" index="0" disallow="tram rail_urban rail rail_electric rail_fast ship" speed="13.89" length="14.20" shape="180.02,191.51 175.52,191.16 172.10,190.98 169.17,190.52 166.10,189.33"/>
    </edge>
    <edge id=":1889319450_1" function="internal">
        <lane id=":1889319450_1_0" index="0" disallow="tram rail_urban rail rail_electric rail_fast ship" speed="13.89" length="8.64" shape="179.67,194.69 177.14,194.52 175.39,194.71 173.70,195.27 171.32,196.24"/>
        <lane id=":1889319450_1_1" index="1" disallow="tram rail_urban rail rail_electric rail_fast ship" speed="13.29" length="7.07" shape="179.31,197.87 177.25,197.74 175.82,197.92 174.44,198.41 172.50,199.21"/>
        <lane id=":1889319450_1_2" index="2" disallow="tram rail_urban rail rail_electric rail_fast ship" speed="11.76" length="5.50" shape="178.96,201.06 177.36,200.97 176.25,201.14 175.19,201.55 173.68,202.19"/>
    </edge>
    <edge id=":1889379335_0" function="internal">
        <lane id=":1889379335_0_0" index="0" disallow="tram rail_urban rail rail_electric rail_fast ship" speed="13.89" length="9.57" shape="242.44,200.50 232.91,198.75"/>
        <lane id=":1889379335_0_1" index="1" disallow="tram rail_urban rail rail_electric rail_fast ship" speed="13.89" length="9.57" shape="241.83,203.64 232.38,201.91"/>
        <lane id=":1889379335_0_2" index="2" disallow="tram rail_urban rail rail_electric rail_fast ship" speed="13.89" length="9.57" shape="241.22,206.78 231.84,205.06"/>
        <lane id=":1889379335_0_3" index="3" disallow="tram rail_urban rail rail_electric rail_fast ship" speed="13.89" length="9.57" shape="240.61,209.92 231.31,208.22"/>
    </edge>
    <edge id=":1889379335_4" function="internal">
        <lane id=":1889379335_4_0" index="0" disallow="tram rail_urban rail rail_electric rail_fast ship" speed="6.00" length="7.99" shape="240.61,209.92 237.81,209.60 235.76,209.87 234.46,210.72 233.89,212.16"/>
    </edge>
    <edge id=":1889379335_5" function="internal">
        <lane id=":1889379335_5_0" index="0" disallow="tram rail_urban rail rail_electric rail_fast ship" speed="7.03" length="10.26" shape="237.07,212.52 237.01,209.63 236.12,207.43 234.40,205.91 231.84,205.06"/>
        <lane id=":1889379335_5_1" index="1" disallow="tram rail_urban rail rail_electric rail_fast ship" speed="6.26" length="7.92" shape="237.07,212.52 236.85,211.03 235.81,209.81 233.97,208.87 231.31,208.22"/>
    </edge>
    <edge id=":246500048_0" function="internal">
        <lane id=":246500048_0_0" index="0" disallow="tram rail_urban rail rail_electric rail_fast ship" speed="10.04" length="7.90" shape="109.76,142.46 109.65,144.70 109.02,146.16 107.92,147.47 106.39,149.26"/>
    </edge>
    <edge id=":246500048_1" function="internal">
        <lane id=":246500048_1_0" index="0" disallow="tram rail_urban rail rail_electric rail_fast ship" speed="13.89" length="7.86" shape="109.76,142.46 110.36,150.34"/>
        <lane id=":246500048_1_1" index="1" disallow="tram rail_urban rail rail_electric rail_fast ship" speed="13.89" length="7.86" shape="112.96,142.29 113.55,150.10"/>
    </edge>
    <edge id=":6293075415_0" function="internal">
        <lane id=":6293075415_0_0" index="0" disallow="tram rail_urban rail rail_electric rail_fast ship" speed="3.65" length="4.67" shape="224.12,318.72 224.80,319.99 225.56,320.46 226.39,320.14 227.30,319.02"/>
    </edge>
    <edge id=":847715560_0" function="internal">
        <lane id=":847715560_0_0" index="0" disallow="tram rail_urban rail rail_electric rail_fast ship" speed="8.67" length="7.62" shape="107.24,162.41 109.06,163.67 110.44,165.05 111.39,166.54 111.92,168.15"/>
    </edge>
    <edge id=":847715560_1" function="internal">
        <lane id=":847715560_1_0" index="0" disallow="tram rail_urban rail rail_electric rail_fast ship" speed="13.89" length="8.00" shape="111.08,160.03 111.24,162.45 111.34,164.11 111.52,165.76 111.92,168.15"/>
        <lane id=":847715560_1_1" index="1" disallow="tram rail_urban rail rail_electric rail_fast ship" speed="13.89" length="8.00" shape="114.27,159.79 114.42,162.11 114.51,163.70 114.68,165.28 115.06,167.57"/>
    </edge>
    <edge id=":847715569_0" function="internal">
        <lane id=":847715569_0_0" index="0" disallow="tram rail_urban rail rail_electric rail_fast ship" speed="13.89" length="0.43" shape="88.37,150.75 88.25,150.70 88.17,150.66 88.10,150.62 87.99,150.55"/>
    </edge>
    <edge id=":847715569_1" function="internal">
        <lane id=":847715569_1_0" index="0" disallow="tram rail_urban rail rail_electric rail_fast ship" speed="13.89" length="1.28" shape="86.14,153.16 86.46,153.36 86.70,153.45 86.95,153.52 87.32,153.64"/>
    </edge>
    <edge id=":cluster_172424179_246500059_0" function="internal">
        <lane id=":cluster_172424179_246500059_0_0" index="0" disallow="tram rail_urban rail rail_electric rail_fast ship" speed="12.50" length="29.43" shape="143.23,212.92 133.59,220.75 126.75,226.64 122.71,230.57 121.46,232.55"/>
        <lane id=":cluster_172424179_246500059_0_1" index="1" disallow="tram rail_urban rail rail_electric rail_fast ship" speed="12.50" length="26.51" shape="145.23,215.42 141.66,218.14 134.58,223.60 127.67,229.13 124.63,232.06"/>
        <lane id=":cluster_172424179_246500059_0_2" index="2" disallow="tram rail_urban rail rail_electric rail_fast ship" speed="12.50" length="23.90" shape="147.23,217.92 138.82,224.51 132.77,228.99 129.10,231.35 127.79,231.58"/>
    </edge>
    <edge id=":cluster_172424179_246500059_3" function="internal">
        <lane id=":cluster_172424179_246500059_3_0" index="0" disallow="tram rail_urban rail rail_electric rail_fast ship" speed="12.50" length="19.70" shape="138.70,229.90 137.11,210.35"/>
        <lane id=":cluster_172424179_246500059_3_1" index="1" disallow="tram rail_urban rail rail_electric rail_fast ship" speed="12.50" length="19.70" shape="135.52,230.39 133.93,210.68"/>
    </edge>
    <edge id=":cluster_172424179_246500059_5" function="internal">
        <lane id=":cluster_172424179_246500059_5_0" index="0" disallow="tram rail_urban rail rail_electric rail_fast ship" speed="5.20" length="8.13" shape="135.52,230.39 133.14,227.79 131.06,227.12 129.27,228.38 129.18,228.60"/>
    </edge>
    <edge id=":cluster_172424179_246500059_9" function="internal">
        <lane id=":cluster_172424179_246500059_9_0" index="0" disallow="tram rail_urban rail rail_electric rail_fast ship" speed="5.20" length="3.29" shape="129.18,228.60 127.79,231.58"/>
    </edge>
    <edge id=":cluster_172424179_246500059_6" function="internal">
        <lane id=":cluster_172424179_246500059_6_0" index="0" disallow="tram rail_urban rail rail_electric rail_fast ship" speed="12.50" length="20.38" shape="119.71,212.16 121.46,232.55"/>
        <lane id=":cluster_172424179_246500059_6_1" index="1" disallow="tram rail_urban rail rail_electric rail_fast ship" speed="12.50" length="20.38" shape="122.90,211.83 123.68,217.73 123.84,221.88 123.95,226.05 124.63,232.06"/>
        <lane id=":cluster_172424179_246500059_6_2" index="2" disallow="tram rail_urban rail rail_electric rail_fast ship" speed="12.50" length="20.38" shape="122.90,211.83 127.79,231.58"/>
    </edge>

    <edge id="-241113060" from="2488166128" to="1704189542" name="Lengkok Merak" priority="3" type="highway.residential" shape="365.32,108.63 348.70,101.54 329.31,89.91 292.37,61.67 287.45,56.21 285.71,50.76 287.16,45.30 292.78,40.82 319.30,17.96 325.23,10.92 328.36,7.20">
        <lane id="-241113060_0" index="0" disallow="tram rail_urban rail rail_electric rail_fast ship" speed="13.89" length="159.10" shape="365.95,107.16 349.43,100.11 330.21,88.58 293.46,60.49 288.87,55.40 287.38,50.72 288.57,46.22 293.80,42.05 320.44,19.09 326.45,11.95 329.58,8.23">
            <param key="origId" value="241113060"/>
        </lane>
    </edge>
    <edge id="-672009347" from="6293075415" to="1889379335" name="Orchard Spring Lane" priority="3" type="highway.residential" shape="225.71,318.87 227.93,295.74 229.71,268.62 230.53,260.22 231.32,253.58 233.12,233.64 235.40,213.07 236.39,204.21">
        <lane id="-672009347_0" index="0" disallow="tram rail_urban rail rail_electric rail_fast ship" speed="13.89" length="106.97" shape="227.30,319.02 229.52,295.87 231.30,268.75 232.12,260.39 232.91,253.75 234.71,233.80 236.99,213.25 237.07,212.52">
            <param key="origId" value="672009347 672009346 764061414 764061415 672009345 178594772"/>
        </lane>
    </edge>
    <edge id="-759491847" from="847715569" to="2616226615" name="Rochalie Drive" priority="3" type="highway.residential" shape="87.06,151.85 85.95,151.06 82.67,148.76 79.26,145.79 76.87,143.71 17.11,84.27 9.50,76.96 0.00,67.66">
        <lane id="-759491847_0" index="0" disallow="tram rail_urban rail rail_electric rail_fast ship" speed="13.89" length="120.95" shape="87.99,150.55 86.87,149.75 83.66,147.50 80.31,144.58 77.96,142.54 18.23,83.13 10.61,75.81 1.12,66.52">
            <param key="origId" value="759491847 635483602 730916761 730916762 730916763 730916764"/>
        </lane>
    </edge>
    <edge id="178591204" from="1889319450" to="1889319444" name="Orchard Boulevard" priority="12" type="highway.primary" spreadType="center" shape="179.81,196.32 163.41,187.96 150.82,180.06 138.41,171.51 129.40,164.29">
        <lane id="178591204_0" index="0" disallow="tram rail_urban rail rail_electric rail_fast ship" speed="13.89" length="36.41" shape="166.10,189.33 163.41,187.96 150.82,180.06 138.41,171.51 135.71,169.35">
            <param key="origId" value="178591204"/>
        </lane>
    </edge>
    <edge id="178594772" from="1889379335" to="6293075415" name="Orchard Spring Lane" priority="3" type="highway.residential" shape="236.39,204.21 235.40,213.07 233.12,233.64 231.32,253.58 230.53,260.22 229.71,268.62 227.93,295.74 225.71,318.87">
        <lane id="178594772_0" index="0" disallow="tram rail_urban rail rail_electric rail_fast ship" speed="13.89" length="107.02" shape="233.89,212.16 233.81,212.89 231.53,233.48 229.73,253.41 228.94,260.05 228.12,268.49 226.34,295.61 224.12,318.72">
            <param key="origId" value="178594772 672009345 764061415 764061414 672009346 672009347"/>
        </lane>
    </edge>
    <edge id="241113060" from="1704189542" to="2488166128" name="Lengkok Merak" priority="3" type="highway.residential" shape="328.36,7.20 325.23,10.92 319.30,17.96 292.78,40.82 287.16,45.30 285.71,50.76 287.45,56.21 292.37,61.67 329.31,89.91 348.70,101.54 365.32,108.63">
        <lane id="241113060_0" index="0" disallow="tram rail_urban rail rail_electric rail_fast ship" speed="13.89" length="165.22" shape="327.14,6.17 324.01,9.89 318.16,16.83 291.76,39.59 285.75,44.38 284.04,50.80 286.03,57.02 291.28,62.85 328.41,91.24 347.97,102.97 364.69,110.10">
            <param key="origId" value="241113060"/>
        </lane>
    </edge>
    <edge id="481674701" from="1889379335" to="1889319450" name="Orchard Boulevard" priority="12" type="highway.primary" spreadType="center" shape="236.39,204.21 209.05,199.57 179.81,196.32">
        <lane id="481674701_0" index="0" disallow="tram rail_urban rail rail_electric rail_fast ship" speed="13.89" length="53.13" shape="232.91,198.75 209.72,194.81 180.02,191.51">
            <param key="origId" value="481674701"/>
        </lane>
        <lane id="481674701_1" index="1" disallow="tram rail_urban rail rail_electric rail_fast ship" speed="13.89" length="53.13" shape="232.38,201.91 209.27,197.98 179.67,194.69">
            <param key="origId" value="481674701"/>
        </lane>
        <lane id="481674701_2" index="2" disallow="tram rail_urban rail rail_electric rail_fast ship" speed="13.89" length="53.13" shape="231.84,205.06 208.83,201.16 179.31,197.87">
            <param key="origId" value="481674701"/>
        </lane>
        <lane id="481674701_3" index="3" disallow="tram rail_urban rail rail_electric rail_fast ship" speed="13.89" length="53.13" shape="231.31,208.22 208.38,204.33 178.96,201.06">
            <param key="origId" value="481674701"/>
        </lane>
    </edge>
    <edge id="481674702" from="1889319450" to="cluster_172424179_246500059" name="Orchard Boulevard" priority="12" type="highway.primary" spreadType="center" shape="179.81,196.32 171.68,199.54 164.00,203.04 156.64,207.16 149.66,211.88 136.72,222.21">
        <lane id="481674702_0" index="0" disallow="tram rail_urban rail rail_electric rail_fast ship" speed="13.89" length="31.85" shape="171.32,196.24 170.43,196.59 162.55,200.18 154.96,204.43 147.76,209.30 143.23,212.92">
            <param key="origId" value="481674702"/>
        </lane>
        <lane id="481674702_1" index="1" disallow="tram rail_urban rail rail_electric rail_fast ship" speed="13.89" length="31.85" shape="172.50,199.21 171.68,199.54 164.00,203.04 156.64,207.16 149.66,211.88 145.23,215.42">
            <param key="origId" value="481674702"/>
        </lane>
        <lane id="481674702_2" index="2" disallow="tram rail_urban rail rail_electric rail_fast ship" speed="13.89" length="31.85" shape="173.68,202.19 172.93,202.49 165.45,205.90 158.32,209.89 151.56,214.46 147.23,217.92">
            <param key="origId" value="481674702"/>
        </lane>
        <param key="origTo" value="172424179"/>
    </edge>
    <edge id="481674707" from="26777521" to="cluster_172424179_246500059" name="Grange Road" priority="12" type="highway.primary" spreadType="center" shape="138.67,335.22 141.05,315.15 141.68,291.85 139.51,266.60 137.85,245.47 136.72,222.21">
        <lane id="481674707_0" index="0" disallow="tram rail_urban rail rail_electric rail_fast ship" speed="11.11" length="105.40" shape="140.26,335.41 142.65,315.27 143.28,291.80 141.10,266.47 139.45,245.37 138.70,229.90">
            <param key="origId" value="481674707 633179143 654734557"/>
        </lane>
        <lane id="481674707_1" index="1" disallow="tram rail_urban rail rail_electric rail_fast ship" speed="11.11" length="105.40" shape="137.08,335.03 139.45,315.03 140.08,291.90 137.92,266.73 136.25,245.57 135.52,230.39">
            <param key="origId" value="481674707 633179143 654734557"/>
        </lane>
        <param key="origTo" value="172424179"/>
    </edge>
    <edge id="482032037" from="847715560" to="cluster_172424179_246500059" name="Grange Road" priority="12" type="highway.primary" spreadType="center" shape="113.13,165.90 118.05,192.71 120.33,206.39 123.42,224.12">
        <lane id="482032037_0" index="0" disallow="tram rail_urban rail rail_electric rail_fast ship" speed="13.89" length="44.82" shape="111.92,168.15 116.47,192.99 118.75,206.66 119.71,212.16">
            <param key="origId" value="482032037"/>
        </lane>
        <lane id="482032037_1" index="1" disallow="tram rail_urban rail rail_electric rail_fast ship" speed="13.89" length="44.82" shape="115.06,167.57 119.63,192.43 121.91,206.12 122.90,211.83">
            <param key="origId" value="482032037"/>
        </lane>
        <param key="origTo" value="246500059"/>
    </edge>
    <edge id="539598541" from="1763842671" to="246500048" name="Grange Road" priority="12" type="highway.primary" spreadType="center" shape="110.73,0.00 104.66,19.11 102.58,46.43 105.81,78.46 108.37,99.40 109.63,109.76 111.35,142.23">
        <lane id="539598541_0" index="0" disallow="tram rail_urban rail rail_electric rail_fast ship" speed="13.89" length="143.84" shape="109.21,-0.48 103.08,18.80 100.97,46.45 104.22,78.64 106.78,99.59 108.04,109.90 109.76,142.46">
            <param key="origId" value="539598541 635479812"/>
        </lane>
        <lane id="539598541_1" index="1" disallow="tram rail_urban rail rail_electric rail_fast ship" speed="13.89" length="143.84" shape="112.25,0.48 106.24,19.42 104.19,46.41 107.40,78.28 109.96,99.21 111.22,109.62 112.96,142.29">
            <param key="origId" value="539598541 635479812"/>
        </lane>
    </edge>
    <edge id="540866814" from="847715569" to="847715560" name="Rochalie Drive" priority="3" type="highway.residential" spreadType="center" shape="86.36,153.29 100.76,158.56 113.13,165.90">
        <lane id="540866814_0" index="0" disallow="tram rail_urban rail rail_electric rail_fast ship" speed="13.89" length="21.86" shape="87.32,153.64 100.76,158.56 107.24,162.41">
            <param key="origId" value="540866814"/>
        </lane>
    </edge>
    <edge id="540866815" from="246500048" to="847715569" priority="3" type="highway.residential" spreadType="center" shape="111.35,142.23 108.58,146.44 106.08,149.66 103.68,151.51 99.73,152.76 92.84,152.84 87.33,150.27">
        <lane id="540866815_0" index="0" disallow="tram rail_urban rail rail_electric rail_fast ship" speed="13.89" length="19.50" shape="106.39,149.26 106.08,149.66 103.68,151.51 99.73,152.76 92.84,152.84 88.37,150.75">
            <param key="origId" value="540866815"/>
        </lane>
    </edge>
    <edge id="633179142" from="cluster_172424179_246500059" to="1889319444" name="Grange Road" priority="12" type="highway.primary" spreadType="center" shape="136.72,222.21 135.02,205.67 133.50,189.95 129.40,164.29">
        <lane id="633179142_0" index="0" disallow="tram rail_urban rail rail_electric rail_fast ship" speed="13.89" length="39.18" shape="137.11,210.35 136.61,205.51 135.09,189.75 132.16,171.41">
            <param key="origId" value="633179142"/>
        </lane>
        <lane id="633179142_1" index="1" disallow="tram rail_urban rail rail_electric rail_fast ship" speed="13.89" length="39.18" shape="133.93,210.68 133.43,205.83 131.91,190.15 129.00,171.92">
            <param key="origId" value="633179142"/>
        </lane>
        <param key="origFrom" value="172424179"/>
    </edge>
    <edge id="635479811" from="246500048" to="847715560" name="Grange Road" priority="12" type="highway.primary" spreadType="center">
        <lane id="635479811_0" index="0" disallow="tram rail_urban rail rail_electric rail_fast ship" speed="13.89" length="9.71" shape="110.36,150.34 111.08,160.03">
            <param key="origId" value="635479811"/>
        </lane>
        <lane id="635479811_1" index="1" disallow="tram rail_urban rail rail_electric rail_fast ship" speed="13.89" length="9.71" shape="113.55,150.10 114.27,159.79">
            <param key="origId" value="635479811"/>
        </lane>
    </edge>
    <edge id="635482762" from="cluster_172424179_246500059" to="1951506450" name="Grange Road" priority="12" type="highway.primary" spreadType="center" shape="123.42,224.12 130.26,269.19 132.55,293.98 131.22,319.71">
        <lane id="635482762_0" index="0" disallow="tram rail_urban rail rail_electric rail_fast ship" speed="11.11" length="88.21" shape="121.46,232.55 127.08,269.58 129.34,294.04 128.02,319.54">
            <param key="origId" value="635482762 74562282"/>
        </lane>
        <lane id="635482762_1" index="1" disallow="tram rail_urban rail rail_electric rail_fast ship" speed="11.11" length="88.21" shape="124.63,232.06 130.26,269.19 132.55,293.98 131.22,319.71">
            <param key="origId" value="635482762 74562282"/>
        </lane>
        <lane id="635482762_2" index="2" disallow="tram rail_urban rail rail_electric rail_fast ship" speed="11.11" length="88.21" shape="127.79,231.58 133.44,268.80 135.76,293.92 134.42,319.88">
            <param key="origId" value="635482762 74562282"/>
        </lane>
        <param key="origFrom" value="246500059"/>
    </edge>
    <edge id="726848034" from="236429991" to="1889379335" name="Orchard Boulevard" priority="12" type="highway.primary" spreadType="center" shape="323.62,220.78 247.06,206.29 236.39,204.21">
        <lane id="726848034_0" index="0" disallow="tram rail_urban rail rail_electric rail_fast ship" speed="13.89" length="83.56" shape="324.51,216.06 247.96,201.57 242.44,200.50">
            <param key="origId" value="726848034"/>
        </lane>
        <lane id="726848034_1" index="1" disallow="tram rail_urban rail rail_electric rail_fast ship" speed="13.89" length="83.56" shape="323.92,219.21 247.36,204.72 241.83,203.64">
            <param key="origId" value="726848034"/>
        </lane>
        <lane id="726848034_2" index="2" disallow="tram rail_urban rail rail_electric rail_fast ship" speed="13.89" length="83.56" shape="323.32,222.35 246.76,207.86 241.22,206.78">
            <param key="origId" value="726848034"/>
        </lane>
        <lane id="726848034_3" index="3" disallow="tram rail_urban rail rail_electric rail_fast ship" speed="13.89" length="83.56" shape="322.73,225.50 246.16,211.01 240.61,209.92">
            <param key="origId" value="726848034"/>
        </lane>
    </edge>
    <edge id="730916764" from="2616226615" to="847715569" name="Rochalie Drive" priority="3" type="highway.residential" shape="0.00,67.66 9.50,76.96 17.11,84.27 76.87,143.71 79.26,145.79 82.67,148.76 85.95,151.06 87.06,151.85">
        <lane id="730916764_0" index="0" disallow="tram rail_urban rail rail_electric rail_fast ship" speed="13.89" length="121.45" shape="-1.12,68.80 8.39,78.11 15.99,85.41 75.78,144.88 78.21,147.00 81.68,150.02 85.03,152.37 86.14,153.16">
            <param key="origId" value="730916764 730916763 730916762 730916761 635483602 759491847"/>
        </lane>
    </edge>
    <edge id="74562284" from="1889319444" to="2616226366" name="Grange Road" priority="12" type="highway.primary" spreadType="center" shape="129.40,164.29 127.20,149.87 124.82,125.05 120.72,98.03 116.86,66.38 115.49,26.52 118.19,12.00">
        <lane id="74562284_0" index="0" disallow="tram rail_urban rail rail_electric rail_fast ship" speed="13.89" length="152.94" shape="130.91,163.61 128.79,149.67 126.41,124.85 122.31,97.81 118.46,66.26 117.10,26.64 119.76,12.29">
            <param key="origId" value="74562284 834183540 834183539 726119820"/>
        </lane>
        <lane id="74562284_1" index="1" disallow="tram rail_urban rail rail_electric rail_fast ship" speed="13.89" length="152.94" shape="127.75,164.09 125.61,150.07 123.23,125.25 119.13,98.25 115.26,66.50 113.88,26.40 116.62,11.71">
            <param key="origId" value="74562284 834183540 834183539 726119820"/>
        </lane>
    </edge>

    <tlLogic id="cluster_172424179_246500059" type="actuated" programID="0" offset="0">
        <phase duration="42" state="rrrGGgGGG" minDur="5" maxDur="50"/>
        <phase duration="3"  state="rrryyyyyy"/>
        <phase duration="42" state="GGGrrrrrr" minDur="5" maxDur="50"/>
        <phase duration="3"  state="yyyrrrrrr"/>
    </tlLogic>

    <junction id="1704189542" type="dead_end" x="328.36" y="7.20" incLanes="-241113060_0" intLanes="" shape="328.36,7.20 330.81,9.26 328.36,7.20"/>
    <junction id="1763842671" type="dead_end" x="110.73" y="0.00" incLanes="" intLanes="" shape="113.78,0.97 107.68,-0.97"/>
    <junction id="1889319444" type="priority" x="129.40" y="164.29" incLanes="178591204_0 633179142_0 633179142_1" intLanes=":1889319444_0_0 :1889319444_1_0 :1889319444_1_1" shape="136.71,168.10 134.71,170.60 134.06,170.22 133.86,170.25 133.74,170.41 133.70,170.72 133.74,171.16 127.42,172.17 126.17,164.33 132.50,163.37 133.25,165.55 133.86,166.16 134.63,166.69 135.57,167.28">
        <request index="0" response="110" foes="110" cont="0"/>
        <request index="1" response="000" foes="001" cont="0"/>